# File generated by Flopy version 3.3.6 on 06/20/2023 at 13:13:05.
BEGIN options
  SAVE_FLOWS
END options

BEGIN packages
  DIS6  egebjerg.dis  dis
  NPF6  egebjerg.npf  npf
  RCH6  egebjerg.rch  rch_0
  DRN6  egebjerg.drn  drn_0
  GHB6  egebjerg.ghb  ghb_0
  IC6  egebjerg.ic  ic
  WEL6  egebjerg.wel  wel_0
  OC6  egebjerg.oc  oc
END packages

