# File generated by Flopy version 3.3.6 on 06/20/2023 at 13:13:05.
BEGIN options
  PRINT_OPTION  all
  COMPLEXITY  complex
END options

BEGIN nonlinear
  OUTER_HCLOSE  1.00000000E-04
  OUTER_MAXIMUM  100
  UNDER_RELAXATION  none
END nonlinear

BEGIN linear
  INNER_MAXIMUM  50
  INNER_HCLOSE  1.00000000E-05
  LINEAR_ACCELERATION  cg
  PRECONDITIONER_LEVELS  7
  PRECONDITIONER_DROP_TOLERANCE       0.01000000
  NUMBER_ORTHOGONALIZATIONS  2
END linear

