# File generated by Flopy version 3.3.6 on 06/20/2023 at 13:13:06.
BEGIN options
END options

BEGIN dimensions
  MAXBOUND  764
END dimensions

BEGIN period  1
  10 118 59       0.00000000     138.90000000
  12 118 60       0.00000000     200.00000000
  13 118 61       0.00000000     190.30000000
  7 119 46       0.00000000      96.12000000
  7 119 47       0.00000000     133.50000000
  10 119 60       0.00000000     108.70000000
  12 119 61       0.00000000     198.90000000
  12 119 62       0.00000000     161.20000000
  7 120 45       0.00000000     134.60000000
  5 120 46       0.00000000     144.90000000
  5 120 47       0.00000000     200.00000000
  5 120 48       0.00000000     200.00000000
  5 120 49       0.00000000     198.70000000
  4 120 50       0.00000000     153.70000000
  5 120 51       0.00000000     155.10000000
  6 120 52       0.00000000     187.60000000
  4 120 53       0.00000000     191.50000000
  4 120 54       0.00000000     169.70000000
  10 120 61       0.00000000     179.40000000
  4 120 62       0.00000000     200.00000000
  4 120 63       0.00000000     197.00000000
  12 120 64       0.00000000     200.00000000
  12 120 65       0.00000000     200.00000000
  4 120 66       0.00000000     200.00000000
  4 120 67       0.00000000     200.00000000
  4 120 68       0.00000000     189.80000000
  6 120 69       0.00000000     128.10000000
  5 120 77       0.00000000     161.40000000
  7 121 45       0.00000000     119.10000000
  7 121 46       0.00000000     199.90000000
  5 121 47       0.00000000     200.00000000
  5 121 48       0.00000000     200.00000000
  4 121 49       0.00000000     200.00000000
  4 121 50       0.00000000     200.00000000
  5 121 51       0.00000000     200.00000000
  5 121 52       0.00000000     200.00000000
  4 121 53       0.00000000     200.00000000
  4 121 54       0.00000000     200.00000000
  5 121 55       0.00000000     181.60000000
  5 121 60       0.00000000     199.40000000
  4 121 61       0.00000000     200.00000000
  4 121 62       0.00000000     200.00000000
  5 121 63       0.00000000     200.00000000
  5 121 64       0.00000000     200.00000000
  5 121 65       0.00000000     200.00000000
  5 121 66       0.00000000     200.00000000
  4 121 67       0.00000000     200.00000000
  4 121 68       0.00000000     200.00000000
  4 121 69       0.00000000     200.00000000
  4 121 70       0.00000000     200.00000000
  4 121 71       0.00000000     191.20000000
  4 121 72       0.00000000     109.40000000
  6 121 75       0.00000000     114.60000000
  6 121 76       0.00000000     198.40000000
  11 121 77       0.00000000     200.00000000
  5 121 78       0.00000000     104.20000000
  7 122 46       0.00000000     161.60000000
  5 122 47       0.00000000     200.00000000
  5 122 48       0.00000000     200.00000000
  4 122 49       0.00000000     200.00000000
  4 122 50       0.00000000     200.00000000
  4 122 51       0.00000000     200.00000000
  5 122 52       0.00000000     200.00000000
  4 122 53       0.00000000     200.00000000
  4 122 54       0.00000000     200.00000000
  4 122 55       0.00000000     200.00000000
  4 122 59       0.00000000     175.30000000
  5 122 60       0.00000000     200.00000000
  5 122 61       0.00000000     200.00000000
  5 122 62       0.00000000     200.00000000
  5 122 63       0.00000000     200.00000000
  5 122 64       0.00000000     200.00000000
  5 122 65       0.00000000     200.00000000
  5 122 66       0.00000000     200.00000000
  4 122 67       0.00000000     200.00000000
  4 122 68       0.00000000     200.00000000
  4 122 69       0.00000000     200.00000000
  4 122 70       0.00000000     200.00000000
  4 122 71       0.00000000     200.00000000
  4 122 72       0.00000000     200.00000000
  4 122 73       0.00000000     200.00000000
  10 122 74       0.00000000     200.00000000
  11 122 75       0.00000000     200.00000000
  11 122 76       0.00000000     200.00000000
  11 122 77       0.00000000     200.00000000
  7 123 46       0.00000000     139.10000000
  5 123 47       0.00000000     200.00000000
  5 123 48       0.00000000     200.00000000
  5 123 49       0.00000000     200.00000000
  4 123 50       0.00000000     200.00000000
  5 123 51       0.00000000     200.00000000
  5 123 52       0.00000000     200.00000000
  4 123 53       0.00000000     200.00000000
  4 123 54       0.00000000     200.00000000
  4 123 55       0.00000000     200.00000000
  4 123 56       0.00000000     180.20000000
  4 123 57       0.00000000     156.30000000
  4 123 58       0.00000000     120.30000000
  5 123 61       0.00000000     200.00000000
  5 123 62       0.00000000     200.00000000
  5 123 63       0.00000000     200.00000000
  4 123 64       0.00000000     200.00000000
  10 123 65       0.00000000     200.00000000
  4 123 66       0.00000000     200.00000000
  4 123 67       0.00000000     200.00000000
  4 123 68       0.00000000     200.00000000
  5 123 69       0.00000000     200.00000000
  5 123 70       0.00000000     200.00000000
  5 123 71       0.00000000     200.00000000
  5 123 72       0.00000000     200.00000000
  4 123 73       0.00000000     200.00000000
  10 123 74       0.00000000     200.00000000
  11 123 75       0.00000000     200.00000000
  11 123 76       0.00000000     200.00000000
  10 123 77       0.00000000     196.00000000
  5 124 48       0.00000000     142.10000000
  5 124 49       0.00000000     198.90000000
  5 124 50       0.00000000     200.00000000
  6 124 51       0.00000000     200.00000000
  7 124 52       0.00000000     200.00000000
  4 124 53       0.00000000     200.00000000
  4 124 54       0.00000000     200.00000000
  4 124 55       0.00000000     200.00000000
  4 124 56       0.00000000     200.00000000
  4 124 57       0.00000000     200.00000000
  6 124 61       0.00000000     145.50000000
  12 124 62       0.00000000     200.00000000
  4 124 63       0.00000000     200.00000000
  4 124 64       0.00000000     200.00000000
  4 124 65       0.00000000     200.00000000
  10 124 66       0.00000000     200.00000000
  4 124 67       0.00000000     200.00000000
  5 124 68       0.00000000     200.00000000
  5 124 69       0.00000000     200.00000000
  4 124 70       0.00000000     200.00000000
  4 124 71       0.00000000     200.00000000
  4 124 72       0.00000000     200.00000000
  4 124 73       0.00000000     200.00000000
  10 124 74       0.00000000     200.00000000
  10 124 75       0.00000000     200.00000000
  10 124 76       0.00000000     200.00000000
  12 124 77       0.00000000     109.70000000
  6 124 116       0.00000000     107.40000000
  7 125 53       0.00000000     144.60000000
  6 125 54       0.00000000     199.40000000
  4 125 55       0.00000000     200.00000000
  4 125 56       0.00000000     200.00000000
  4 125 57       0.00000000     200.00000000
  10 125 66       0.00000000     112.80000000
  10 125 67       0.00000000     134.00000000
  10 125 68       0.00000000     193.60000000
  10 125 69       0.00000000     200.00000000
  4 125 70       0.00000000     200.00000000
  4 125 71       0.00000000     200.00000000
  4 125 72       0.00000000     200.00000000
  4 125 73       0.00000000     200.00000000
  10 125 74       0.00000000     200.00000000
  10 125 75       0.00000000     190.30000000
  7 125 116       0.00000000     174.90000000
  4 125 117       0.00000000     200.00000000
  6 126 55       0.00000000     109.50000000
  6 126 56       0.00000000     198.10000000
  4 126 57       0.00000000     200.00000000
  10 126 68       0.00000000     116.00000000
  10 126 69       0.00000000     200.00000000
  5 126 70       0.00000000     200.00000000
  6 126 71       0.00000000     200.00000000
  10 126 72       0.00000000     200.00000000
  12 126 73       0.00000000     177.80000000
  12 126 74       0.00000000     116.20000000
  7 126 116       0.00000000     200.00000000
  4 126 117       0.00000000     200.00000000
  10 127 69       0.00000000     200.00000000
  4 127 70       0.00000000     191.40000000
  7 127 115       0.00000000     109.90000000
  4 127 116       0.00000000     200.00000000
  4 127 117       0.00000000     200.00000000
  4 128 69       0.00000000     200.00000000
  6 128 70       0.00000000     150.90000000
  7 128 115       0.00000000     166.00000000
  4 128 116       0.00000000     200.00000000
  4 128 117       0.00000000     200.00000000
  5 129 69       0.00000000     198.70000000
  6 129 70       0.00000000     143.30000000
  5 129 115       0.00000000     199.70000000
  4 129 116       0.00000000     200.00000000
  4 129 117       0.00000000     200.00000000
  10 130 69       0.00000000     117.60000000
  6 130 70       0.00000000     177.80000000
  5 130 115       0.00000000     200.00000000
  4 130 116       0.00000000     200.00000000
  4 130 117       0.00000000     200.00000000
  4 131 70       0.00000000     174.60000000
  7 131 114       0.00000000     140.90000000
  5 131 115       0.00000000     200.00000000
  4 131 116       0.00000000     200.00000000
  5 131 117       0.00000000     200.00000000
  6 132 71       0.00000000     194.70000000
  7 132 114       0.00000000     162.20000000
  4 132 115       0.00000000     200.00000000
  5 132 116       0.00000000     200.00000000
  5 132 117       0.00000000     200.00000000
  4 133 71       0.00000000     200.00000000
  4 133 72       0.00000000     174.40000000
  5 133 114       0.00000000     157.50000000
  4 133 115       0.00000000     200.00000000
  4 133 116       0.00000000     200.00000000
  4 133 117       0.00000000     200.00000000
  6 134 71       0.00000000     178.70000000
  5 134 72       0.00000000     200.00000000
  6 134 73       0.00000000     170.00000000
  4 134 114       0.00000000     152.80000000
  4 134 115       0.00000000     200.00000000
  5 134 116       0.00000000     200.00000000
  5 134 117       0.00000000     200.00000000
  7 135 72       0.00000000     200.00000000
  6 135 73       0.00000000     200.00000000
  6 135 74       0.00000000     126.80000000
  7 135 114       0.00000000     110.00000000
  4 135 115       0.00000000     200.00000000
  5 135 116       0.00000000     200.00000000
  5 135 117       0.00000000     200.00000000
  5 135 118       0.00000000     200.00000000
  7 136 72       0.00000000     162.20000000
  6 136 73       0.00000000     200.00000000
  6 136 74       0.00000000     200.00000000
  6 136 75       0.00000000     174.20000000
  7 136 115       0.00000000     134.60000000
  7 136 116       0.00000000     200.00000000
  5 136 117       0.00000000     200.00000000
  5 136 118       0.00000000     200.00000000
  5 137 72       0.00000000     182.90000000
  5 137 73       0.00000000     200.00000000
  5 137 74       0.00000000     200.00000000
  6 137 75       0.00000000     200.00000000
  6 137 76       0.00000000     200.00000000
  4 137 77       0.00000000     199.70000000
  4 137 78       0.00000000     109.20000000
  6 137 116       0.00000000     184.90000000
  6 137 117       0.00000000     200.00000000
  5 137 118       0.00000000     200.00000000
  8 138 70       0.00000000     167.30000000
  4 138 71       0.00000000     200.00000000
  4 138 72       0.00000000     200.00000000
  4 138 73       0.00000000     200.00000000
  6 138 74       0.00000000     200.00000000
  6 138 75       0.00000000     200.00000000
  6 138 76       0.00000000     200.00000000
  4 138 77       0.00000000     200.00000000
  4 138 78       0.00000000     200.00000000
  4 138 79       0.00000000     131.30000000
  6 138 116       0.00000000     184.70000000
  6 138 117       0.00000000     200.00000000
  6 138 118       0.00000000     200.00000000
  5 139 65       0.00000000     152.80000000
  5 139 66       0.00000000     200.00000000
  4 139 67       0.00000000     187.70000000
  6 139 68       0.00000000     198.30000000
  6 139 69       0.00000000     200.00000000
  4 139 70       0.00000000     200.00000000
  4 139 71       0.00000000     200.00000000
  4 139 72       0.00000000     200.00000000
  5 139 73       0.00000000     200.00000000
  6 139 74       0.00000000     200.00000000
  6 139 75       0.00000000     200.00000000
  6 139 76       0.00000000     200.00000000
  4 139 77       0.00000000     200.00000000
  4 139 78       0.00000000     200.00000000
  4 139 79       0.00000000     200.00000000
  5 139 80       0.00000000     146.50000000
  6 139 116       0.00000000     192.50000000
  6 139 117       0.00000000     200.00000000
  5 139 118       0.00000000     200.00000000
  5 140 64       0.00000000     194.60000000
  5 140 65       0.00000000     200.00000000
  5 140 66       0.00000000     200.00000000
  4 140 67       0.00000000     200.00000000
  6 140 68       0.00000000     200.00000000
  6 140 69       0.00000000     200.00000000
  4 140 70       0.00000000     200.00000000
  4 140 71       0.00000000     200.00000000
  4 140 79       0.00000000     200.00000000
  4 140 80       0.00000000     200.00000000
  4 140 81       0.00000000     160.30000000
  6 140 116       0.00000000     199.10000000
  6 140 117       0.00000000     200.00000000
  5 140 118       0.00000000     200.00000000
  5 141 61       0.00000000     183.90000000
  6 141 62       0.00000000     200.00000000
  5 141 63       0.00000000     200.00000000
  4 141 64       0.00000000     200.00000000
  5 141 65       0.00000000     200.00000000
  5 141 66       0.00000000     200.00000000
  6 141 67       0.00000000     200.00000000
  6 141 68       0.00000000     200.00000000
  4 141 81       0.00000000     200.00000000
  4 141 82       0.00000000     172.40000000
  4 141 92       0.00000000     135.70000000
  4 141 93       0.00000000     185.10000000
  4 141 94       0.00000000     200.00000000
  4 141 95       0.00000000     200.00000000
  6 141 96       0.00000000     200.00000000
  6 141 97       0.00000000     200.00000000
  4 141 98       0.00000000     200.00000000
  4 141 99       0.00000000     182.10000000
  4 141 100       0.00000000     116.70000000
  6 141 101       0.00000000     108.90000000
  6 141 102       0.00000000     107.40000000
  6 141 116       0.00000000     200.00000000
  6 141 117       0.00000000     200.00000000
  5 141 118       0.00000000     200.00000000
  5 142 61       0.00000000     200.00000000
  5 142 62       0.00000000     200.00000000
  5 142 63       0.00000000     200.00000000
  5 142 64       0.00000000     200.00000000
  5 142 65       0.00000000     200.00000000
  4 142 82       0.00000000     200.00000000
  4 142 83       0.00000000     190.60000000
  4 142 90       0.00000000     164.60000000
  4 142 91       0.00000000     200.00000000
  4 142 92       0.00000000     200.00000000
  4 142 93       0.00000000     200.00000000
  4 142 94       0.00000000     200.00000000
  4 142 95       0.00000000     200.00000000
  6 142 96       0.00000000     200.00000000
  6 142 97       0.00000000     200.00000000
  4 142 98       0.00000000     200.00000000
  4 142 99       0.00000000     200.00000000
  6 142 100       0.00000000     200.00000000
  6 142 101       0.00000000     200.00000000
  4 142 102       0.00000000     200.00000000
  4 142 103       0.00000000     200.00000000
  4 142 104       0.00000000     180.40000000
  4 142 105       0.00000000     122.50000000
  4 142 106       0.00000000     121.70000000
  4 142 107       0.00000000     121.50000000
  5 142 108       0.00000000     121.30000000
  5 142 109       0.00000000     121.10000000
  4 142 110       0.00000000     120.90000000
  4 142 111       0.00000000     120.70000000
  4 142 112       0.00000000     120.50000000
  6 142 113       0.00000000     120.30000000
  6 142 114       0.00000000     120.30000000
  6 142 115       0.00000000     185.10000000
  6 142 116       0.00000000     200.00000000
  6 142 117       0.00000000     200.00000000
  5 143 63       0.00000000     200.00000000
  4 143 82       0.00000000     200.00000000
  4 143 83       0.00000000     200.00000000
  4 143 84       0.00000000     191.80000000
  4 143 85       0.00000000     113.90000000
  6 143 87       0.00000000     126.30000000
  4 143 88       0.00000000     188.40000000
  4 143 89       0.00000000     200.00000000
  4 143 90       0.00000000     200.00000000
  4 143 91       0.00000000     200.00000000
  4 143 92       0.00000000     200.00000000
  4 143 93       0.00000000     200.00000000
  4 143 94       0.00000000     200.00000000
  4 143 105       0.00000000     200.00000000
  5 143 106       0.00000000     200.00000000
  5 143 107       0.00000000     200.00000000
  5 143 108       0.00000000     200.00000000
  5 143 109       0.00000000     200.00000000
  4 143 110       0.00000000     200.00000000
  4 143 111       0.00000000     200.00000000
  5 143 112       0.00000000     200.00000000
  5 143 113       0.00000000     200.00000000
  4 143 114       0.00000000     200.00000000
  4 143 115       0.00000000     200.00000000
  5 143 116       0.00000000     200.00000000
  5 143 117       0.00000000     200.00000000
  4 144 83       0.00000000     200.00000000
  4 144 84       0.00000000     200.00000000
  4 144 85       0.00000000     200.00000000
  4 144 86       0.00000000     200.00000000
  4 144 87       0.00000000     200.00000000
  4 144 88       0.00000000     200.00000000
  4 144 89       0.00000000     200.00000000
  4 144 90       0.00000000     200.00000000
  4 144 91       0.00000000     200.00000000
  6 144 92       0.00000000     200.00000000
  10 118 59       0.00000000     138.90000000
  12 118 60       0.00000000     200.00000000
  13 118 61       0.00000000     190.30000000
  7 119 46       0.00000000      96.12000000
  7 119 47       0.00000000     133.50000000
  10 119 60       0.00000000     108.70000000
  12 119 61       0.00000000     198.90000000
  12 119 62       0.00000000     161.20000000
  7 120 45       0.00000000     134.60000000
  5 120 46       0.00000000     144.90000000
  5 120 47       0.00000000     200.00000000
  5 120 48       0.00000000     200.00000000
  5 120 49       0.00000000     198.70000000
  4 120 50       0.00000000     153.70000000
  5 120 51       0.00000000     155.10000000
  6 120 52       0.00000000     187.60000000
  4 120 53       0.00000000     191.50000000
  4 120 54       0.00000000     169.70000000
  10 120 61       0.00000000     179.40000000
  4 120 62       0.00000000     200.00000000
  4 120 63       0.00000000     197.00000000
  12 120 64       0.00000000     200.00000000
  12 120 65       0.00000000     200.00000000
  4 120 66       0.00000000     200.00000000
  4 120 67       0.00000000     200.00000000
  4 120 68       0.00000000     189.80000000
  6 120 69       0.00000000     128.10000000
  5 120 77       0.00000000     161.40000000
  7 121 45       0.00000000     119.10000000
  7 121 46       0.00000000     199.90000000
  5 121 47       0.00000000     200.00000000
  5 121 48       0.00000000     200.00000000
  4 121 49       0.00000000     200.00000000
  4 121 50       0.00000000     200.00000000
  5 121 51       0.00000000     200.00000000
  5 121 52       0.00000000     200.00000000
  4 121 53       0.00000000     200.00000000
  4 121 54       0.00000000     200.00000000
  5 121 55       0.00000000     181.60000000
  5 121 60       0.00000000     199.40000000
  4 121 61       0.00000000     200.00000000
  4 121 62       0.00000000     200.00000000
  5 121 63       0.00000000     200.00000000
  5 121 64       0.00000000     200.00000000
  5 121 65       0.00000000     200.00000000
  5 121 66       0.00000000     200.00000000
  4 121 67       0.00000000     200.00000000
  4 121 68       0.00000000     200.00000000
  4 121 69       0.00000000     200.00000000
  4 121 70       0.00000000     200.00000000
  4 121 71       0.00000000     191.20000000
  4 121 72       0.00000000     109.40000000
  6 121 75       0.00000000     114.60000000
  6 121 76       0.00000000     198.40000000
  11 121 77       0.00000000     200.00000000
  5 121 78       0.00000000     104.20000000
  7 122 46       0.00000000     161.60000000
  5 122 47       0.00000000     200.00000000
  5 122 48       0.00000000     200.00000000
  4 122 49       0.00000000     200.00000000
  4 122 50       0.00000000     200.00000000
  4 122 51       0.00000000     200.00000000
  5 122 52       0.00000000     200.00000000
  4 122 53       0.00000000     200.00000000
  4 122 54       0.00000000     200.00000000
  4 122 55       0.00000000     200.00000000
  4 122 59       0.00000000     175.30000000
  5 122 60       0.00000000     200.00000000
  5 122 61       0.00000000     200.00000000
  5 122 62       0.00000000     200.00000000
  5 122 63       0.00000000     200.00000000
  5 122 64       0.00000000     200.00000000
  5 122 65       0.00000000     200.00000000
  5 122 66       0.00000000     200.00000000
  4 122 67       0.00000000     200.00000000
  4 122 68       0.00000000     200.00000000
  4 122 69       0.00000000     200.00000000
  4 122 70       0.00000000     200.00000000
  4 122 71       0.00000000     200.00000000
  4 122 72       0.00000000     200.00000000
  4 122 73       0.00000000     200.00000000
  10 122 74       0.00000000     200.00000000
  11 122 75       0.00000000     200.00000000
  11 122 76       0.00000000     200.00000000
  11 122 77       0.00000000     200.00000000
  7 123 46       0.00000000     139.10000000
  5 123 47       0.00000000     200.00000000
  5 123 48       0.00000000     200.00000000
  5 123 49       0.00000000     200.00000000
  4 123 50       0.00000000     200.00000000
  5 123 51       0.00000000     200.00000000
  5 123 52       0.00000000     200.00000000
  4 123 53       0.00000000     200.00000000
  4 123 54       0.00000000     200.00000000
  4 123 55       0.00000000     200.00000000
  4 123 56       0.00000000     180.20000000
  4 123 57       0.00000000     156.30000000
  4 123 58       0.00000000     120.30000000
  5 123 61       0.00000000     200.00000000
  5 123 62       0.00000000     200.00000000
  5 123 63       0.00000000     200.00000000
  4 123 64       0.00000000     200.00000000
  10 123 65       0.00000000     200.00000000
  4 123 66       0.00000000     200.00000000
  4 123 67       0.00000000     200.00000000
  4 123 68       0.00000000     200.00000000
  5 123 69       0.00000000     200.00000000
  5 123 70       0.00000000     200.00000000
  5 123 71       0.00000000     200.00000000
  5 123 72       0.00000000     200.00000000
  4 123 73       0.00000000     200.00000000
  10 123 74       0.00000000     200.00000000
  11 123 75       0.00000000     200.00000000
  11 123 76       0.00000000     200.00000000
  10 123 77       0.00000000     196.00000000
  5 124 48       0.00000000     142.10000000
  5 124 49       0.00000000     198.90000000
  5 124 50       0.00000000     200.00000000
  6 124 51       0.00000000     200.00000000
  7 124 52       0.00000000     200.00000000
  4 124 53       0.00000000     200.00000000
  4 124 54       0.00000000     200.00000000
  4 124 55       0.00000000     200.00000000
  4 124 56       0.00000000     200.00000000
  4 124 57       0.00000000     200.00000000
  6 124 61       0.00000000     145.50000000
  12 124 62       0.00000000     200.00000000
  4 124 63       0.00000000     200.00000000
  4 124 64       0.00000000     200.00000000
  4 124 65       0.00000000     200.00000000
  10 124 66       0.00000000     200.00000000
  4 124 67       0.00000000     200.00000000
  5 124 68       0.00000000     200.00000000
  5 124 69       0.00000000     200.00000000
  4 124 70       0.00000000     200.00000000
  4 124 71       0.00000000     200.00000000
  4 124 72       0.00000000     200.00000000
  4 124 73       0.00000000     200.00000000
  10 124 74       0.00000000     200.00000000
  10 124 75       0.00000000     200.00000000
  10 124 76       0.00000000     200.00000000
  12 124 77       0.00000000     109.70000000
  6 124 116       0.00000000     107.40000000
  7 125 53       0.00000000     144.60000000
  6 125 54       0.00000000     199.40000000
  4 125 55       0.00000000     200.00000000
  4 125 56       0.00000000     200.00000000
  4 125 57       0.00000000     200.00000000
  10 125 66       0.00000000     112.80000000
  10 125 67       0.00000000     134.00000000
  10 125 68       0.00000000     193.60000000
  10 125 69       0.00000000     200.00000000
  4 125 70       0.00000000     200.00000000
  4 125 71       0.00000000     200.00000000
  4 125 72       0.00000000     200.00000000
  4 125 73       0.00000000     200.00000000
  10 125 74       0.00000000     200.00000000
  10 125 75       0.00000000     190.30000000
  7 125 116       0.00000000     174.90000000
  4 125 117       0.00000000     200.00000000
  6 126 55       0.00000000     109.50000000
  6 126 56       0.00000000     198.10000000
  4 126 57       0.00000000     200.00000000
  10 126 68       0.00000000     116.00000000
  10 126 69       0.00000000     200.00000000
  5 126 70       0.00000000     200.00000000
  6 126 71       0.00000000     200.00000000
  10 126 72       0.00000000     200.00000000
  12 126 73       0.00000000     177.80000000
  12 126 74       0.00000000     116.20000000
  7 126 116       0.00000000     200.00000000
  4 126 117       0.00000000     200.00000000
  10 127 69       0.00000000     200.00000000
  4 127 70       0.00000000     191.40000000
  7 127 115       0.00000000     109.90000000
  4 127 116       0.00000000     200.00000000
  4 127 117       0.00000000     200.00000000
  4 128 69       0.00000000     200.00000000
  6 128 70       0.00000000     150.90000000
  7 128 115       0.00000000     166.00000000
  4 128 116       0.00000000     200.00000000
  4 128 117       0.00000000     200.00000000
  5 129 69       0.00000000     198.70000000
  6 129 70       0.00000000     143.30000000
  5 129 115       0.00000000     199.70000000
  4 129 116       0.00000000     200.00000000
  4 129 117       0.00000000     200.00000000
  10 130 69       0.00000000     117.60000000
  6 130 70       0.00000000     177.80000000
  5 130 115       0.00000000     200.00000000
  4 130 116       0.00000000     200.00000000
  4 130 117       0.00000000     200.00000000
  4 131 70       0.00000000     174.60000000
  7 131 114       0.00000000     140.90000000
  5 131 115       0.00000000     200.00000000
  4 131 116       0.00000000     200.00000000
  5 131 117       0.00000000     200.00000000
  6 132 71       0.00000000     194.70000000
  7 132 114       0.00000000     162.20000000
  4 132 115       0.00000000     200.00000000
  5 132 116       0.00000000     200.00000000
  5 132 117       0.00000000     200.00000000
  4 133 71       0.00000000     200.00000000
  4 133 72       0.00000000     174.40000000
  5 133 114       0.00000000     157.50000000
  4 133 115       0.00000000     200.00000000
  4 133 116       0.00000000     200.00000000
  4 133 117       0.00000000     200.00000000
  6 134 71       0.00000000     178.70000000
  5 134 72       0.00000000     200.00000000
  6 134 73       0.00000000     170.00000000
  4 134 114       0.00000000     152.80000000
  4 134 115       0.00000000     200.00000000
  5 134 116       0.00000000     200.00000000
  5 134 117       0.00000000     200.00000000
  7 135 72       0.00000000     200.00000000
  6 135 73       0.00000000     200.00000000
  6 135 74       0.00000000     126.80000000
  7 135 114       0.00000000     110.00000000
  4 135 115       0.00000000     200.00000000
  5 135 116       0.00000000     200.00000000
  5 135 117       0.00000000     200.00000000
  5 135 118       0.00000000     200.00000000
  7 136 72       0.00000000     162.20000000
  6 136 73       0.00000000     200.00000000
  6 136 74       0.00000000     200.00000000
  6 136 75       0.00000000     174.20000000
  7 136 115       0.00000000     134.60000000
  7 136 116       0.00000000     200.00000000
  5 136 117       0.00000000     200.00000000
  5 136 118       0.00000000     200.00000000
  5 137 72       0.00000000     182.90000000
  5 137 73       0.00000000     200.00000000
  5 137 74       0.00000000     200.00000000
  6 137 75       0.00000000     200.00000000
  6 137 76       0.00000000     200.00000000
  4 137 77       0.00000000     199.70000000
  4 137 78       0.00000000     109.20000000
  6 137 116       0.00000000     184.90000000
  6 137 117       0.00000000     200.00000000
  5 137 118       0.00000000     200.00000000
  8 138 70       0.00000000     167.30000000
  4 138 71       0.00000000     200.00000000
  4 138 72       0.00000000     200.00000000
  4 138 73       0.00000000     200.00000000
  6 138 74       0.00000000     200.00000000
  6 138 75       0.00000000     200.00000000
  6 138 76       0.00000000     200.00000000
  4 138 77       0.00000000     200.00000000
  4 138 78       0.00000000     200.00000000
  4 138 79       0.00000000     131.30000000
  6 138 116       0.00000000     184.70000000
  6 138 117       0.00000000     200.00000000
  6 138 118       0.00000000     200.00000000
  5 139 65       0.00000000     152.80000000
  5 139 66       0.00000000     200.00000000
  4 139 67       0.00000000     187.70000000
  6 139 68       0.00000000     198.30000000
  6 139 69       0.00000000     200.00000000
  4 139 70       0.00000000     200.00000000
  4 139 71       0.00000000     200.00000000