# File generated by Flopy version 3.3.6 on 06/20/2023 at 13:13:06.
BEGIN options
END options

BEGIN dimensions
  MAXBOUND  12058
END dimensions

BEGIN period  1
  13 3 28     134.17000000     107.49000000
  4 4 22     146.50000000     128.11000000
  4 4 23     149.40000000     158.11000000
  4 4 24     151.47000000     187.95000000
  4 4 25     151.33000000     200.00000000
  4 4 26     151.70000000     200.00000000
  4 4 27     147.80000000     200.00000000
  13 4 28     139.20000000     200.00000000
  13 4 29     144.77000000     200.00000000
  4 4 30     145.50000000     200.00000000
  4 4 31     136.08000000     200.00000000
  4 4 32     131.50000000     188.92000000
  4 4 33     131.50000000     154.16000000
  4 4 34     134.20000000     110.59000000
  12 5 19     155.53000000     101.72000000
  12 5 20     156.27000000     183.36000000
  4 5 21     150.53000000     200.00000000
  4 5 22     146.50000000     200.00000000
  4 5 23     149.52000000     200.00000000
  4 5 24     151.63000000     200.00000000
  4 5 25     152.85000000     200.00000000
  4 5 26     151.10000000     200.00000000
  13 5 27     145.70000000     200.00000000
  13 5 28     141.90000000     200.00000000
  13 5 29     146.53000000     200.00000000
  4 5 30     146.47000000     200.00000000
  4 5 31     138.60000000     200.00000000
  4 5 32     136.30000000     200.00000000
  4 5 33     136.10000000     200.00000000
  4 5 34     131.50000000     200.00000000
  4 5 35     131.87000000     200.00000000
  4 5 36     133.62000000     191.53000000
  4 5 37     131.47000000     140.65000000
  4 5 71     104.37000000     115.81000000
  4 5 72     106.16000000     144.61000000
  4 5 73     106.90000000     120.16000000
  4 6 18     156.50000000     194.69000000
  4 6 19     157.65000000     200.00000000
  4 6 20     159.37000000     200.00000000
  4 6 21     155.90000000     200.00000000
  4 6 22     151.30000000     200.00000000
  4 6 23     151.72000000     200.00000000
  4 6 24     153.83000000     200.00000000
  4 6 25     154.37000000     200.00000000
  4 6 26     155.13000000     200.00000000
  4 6 27     149.17000000     200.00000000
  4 6 28     153.03000000     200.00000000
  4 6 29     148.43000000     200.00000000
  4 6 30     146.10000000     200.00000000
  13 6 31     141.10000000     200.00000000
  13 6 32     138.90000000     200.00000000
  13 6 33     138.60000000     200.00000000
  4 6 34     133.43000000     200.00000000
  4 6 35     131.90000000     200.00000000
  4 6 36     134.00000000     200.00000000
  4 6 37     132.55000000     200.00000000
  4 6 38     130.70000000     200.00000000
  4 6 39     120.53000000     199.99000000
  4 6 40     116.50000000     170.54000000
  4 6 41     114.20000000     116.13000000
  3 6 66     103.63000000     100.78000000
  3 6 67     105.15000000     143.79000000
  3 6 68     104.37000000     185.99000000
  3 6 69     108.63000000     200.00000000
  3 6 70     108.80000000     200.00000000
  3 6 71     111.62000000     200.00000000
  4 6 72     108.03000000     200.00000000
  6 6 73     104.40000000     200.00000000
  6 6 74     107.07000000     200.00000000
  4 6 75     112.47000000     200.00000000
  4 6 76     119.00000000     200.00000000
  4 6 77     118.40000000     197.29000000
  4 6 78     118.20000000     172.58000000
  4 6 79     114.57000000     143.07000000
  4 6 80     120.70000000     112.74000000
  4 7 16     149.00000000     106.08000000
  4 7 17     149.40000000     199.99000000
  4 7 18     152.10000000     200.00000000
  4 7 19     159.00000000     200.00000000
  4 7 20     161.60000000     200.00000000
  4 7 21     161.07000000     200.00000000
  4 7 22     158.23000000     200.00000000
  4 7 23     156.30000000     200.00000000
  4 7 24     156.02000000     200.00000000
  4 7 25     154.00000000     200.00000000
  4 7 26     151.48000000     200.00000000
  4 7 27     151.92000000     200.00000000
  4 7 28     157.80000000     200.00000000
  4 7 29     158.03000000     200.00000000
  4 7 30     152.83000000     200.00000000
  13 7 31     145.73000000     200.00000000
  4 7 32     141.60000000     200.00000000
  4 7 33     141.30000000     200.00000000
  4 7 34     140.90000000     200.00000000
  4 7 35     138.40000000     200.00000000
  4 7 36     131.62000000     200.00000000
  4 7 37     131.50000000     200.00000000
  4 7 38     128.60000000     200.00000000
  4 7 39     124.93000000     200.00000000
  4 7 40     121.30000000     200.00000000
  4 7 41     116.47000000     200.00000000
  4 7 42     116.33000000     200.00000000
  4 7 43     116.50000000     200.00000000
  4 7 44     116.62000000     191.71000000
  4 7 45     116.62000000     154.26000000
  4 7 46     118.83000000     114.26000000
  4 7 63      99.37000000     146.23000000
  3 7 64     103.25000000     195.38000000
  4 7 65      99.23000000     200.00000000
  3 7 66     104.26000000     200.00000000
  3 7 67     106.62000000     200.00000000
  3 7 68     106.13000000     200.00000000
  3 7 69     104.20000000     200.00000000
  4 7 70     103.63000000     200.00000000
  4 7 71     102.67000000     200.00000000
  4 7 72     111.07000000     200.00000000
  6 7 73     106.70000000     200.00000000
  6 7 74     111.73000000     200.00000000
  5 7 75     114.03000000     200.00000000
  4 7 76     117.07000000     200.00000000
  4 7 77     121.87000000     200.00000000
  4 7 78     123.82000000     200.00000000
  4 7 79     122.83000000     200.00000000
  3 7 80     126.30000000     200.00000000
  3 7 81     120.47000000     200.00000000
  4 7 82     111.10000000     176.82000000
  4 7 83     108.60000000     103.97000000
  4 8 15     149.00000000     121.29000000
  4 8 16     149.00000000     200.00000000
  5 8 17     149.40000000     200.00000000
  4 8 18     151.90000000     200.00000000
  4 8 19     157.02000000     200.00000000
  3 8 20     160.93000000     200.00000000
  3 8 21     162.83000000     200.00000000
  3 8 22     163.55000000     200.00000000
  3 8 23     163.43000000     200.00000000
  4 8 24     159.34000000     200.00000000
  4 8 25     155.93000000     200.00000000
  4 8 26     153.92000000     200.00000000
  4 8 27     155.04000000     200.00000000
  4 8 28     158.07000000     200.00000000
  4 8 29     160.13000000     200.00000000
  4 8 30     156.28000000     200.00000000
  4 8 31     153.20000000     200.00000000
  4 8 32     148.40000000     200.00000000
  4 8 33     146.30000000     200.00000000
  4 8 34     141.36000000     200.00000000
  4 8 35     138.60000000     200.00000000
  4 8 36     128.60000000     200.00000000
  4 8 37     124.20000000     200.00000000
  4 8 38     124.20000000     200.00000000
  3 8 39     126.90000000     200.00000000
  3 8 40     126.27000000     200.00000000
  3 8 41     123.77000000     200.00000000
  3 8 42     118.88000000     200.00000000
  4 8 43     118.80000000     200.00000000
  4 8 44     116.50000000     200.00000000
  4 8 45     116.10000000     200.00000000
  4 8 46     114.03000000     200.00000000
  4 8 47     117.07000000     200.00000000
  4 8 48     115.78000000     200.00000000
  5 8 49     110.64000000     191.73000000
  5 8 50      99.14000000     154.28000000
  4 8 51      99.50000000     114.25000000
  4 8 59      81.53000000     121.09000000
  4 8 60      84.40000000     168.04000000
  4 8 61      88.83000000     199.83000000
  4 8 62      89.60000000     200.00000000
  4 8 63      94.60000000     200.00000000
  3 8 64     101.67000000     200.00000000
  3 8 65      98.66000000     200.00000000
  3 8 66     104.40000000     200.00000000
  3 8 67     108.82000000     200.00000000
  3 8 68     108.12000000     200.00000000
  3 8 69     104.00000000     200.00000000
  4 8 70     103.60000000     200.00000000
  4 8 71     101.50000000     200.00000000
  4 8 72     105.00000000     200.00000000
  4 8 73     106.16000000     200.00000000
  4 8 74     109.42000000     200.00000000
  4 8 75     112.65000000     200.00000000
  4 8 76     114.60000000     200.00000000
  4 8 77     116.70000000     200.00000000
  4 8 78     116.73000000     200.00000000
  4 8 79     119.40000000     200.00000000
  4 8 80     121.90000000     200.00000000
  4 8 81     118.94000000     200.00000000
  4 8 82     111.12000000     200.00000000
  5 8 83     108.03000000     200.00000000
  5 8 84     103.37000000     196.30000000
  5 8 85      99.00000000     119.76000000
  4 9 14     158.60000000     135.17000000
  4 9 15     151.10000000     200.00000000
  4 9 16     147.47000000     200.00000000
  4 9 17     149.40000000     200.00000000
  4 9 18     153.25000000     200.00000000
  4 9 19     154.48000000     200.00000000
  3 9 20     159.43000000     200.00000000
  3 9 21     161.70000000     200.00000000
  3 9 22     163.02000000     200.00000000
  3 9 23     161.67000000     200.00000000
  3 9 24     164.37000000     200.00000000
  3 9 25     165.87000000     200.00000000
  3 9 26     162.66000000     200.00000000
  4 9 27     156.44000000     200.00000000
  4 9 28     156.50000000     200.00000000
  4 9 29     159.37000000     200.00000000
  4 9 30     161.27000000     200.00000000
  4 9 31     155.92000000     200.00000000
  4 9 32     152.83000000     200.00000000
  3 9 33     155.70000000     200.00000000
  3 9 34     152.60000000     200.00000000
  3 9 35     145.87000000     200.00000000
  3 9 36     140.24000000     200.00000000
  4 9 37     128.25000000     200.00000000
  4 9 38     121.50000000     200.00000000
  3 9 39     121.95000000     200.00000000
  3 9 40     121.87000000     200.00000000
  3 9 41     123.03000000     200.00000000
  3 9 42     123.43000000     200.00000000
  3 9 43     121.33000000     200.00000000
  3 9 44     120.12000000     200.00000000
  3 9 45     122.80000000     200.00000000
  4 9 46     115.93000000     200.00000000
  4 9 47     114.38000000     200.00000000
  4 9 48     113.43000000     200.00000000
  4 9 49     106.64000000     200.00000000
  4 9 50     111.73000000     200.00000000
  4 9 51     113.26000000     200.00000000
  4 9 52     110.00000000     200.00000000
  4 9 53     108.77000000     200.00000000
  4 9 54     104.34000000     191.67000000
  4 9 55     105.30000000     158.19000000
  4 9 56     100.47000000     182.96000000
  4 9 57      92.80000000     200.00000000
  4 9 58      83.43000000     200.00000000
  4 9 59      81.50000000     200.00000000
  4 9 60      81.93000000     200.00000000
  4 9 61      87.45000000     200.00000000
  4 9 62      92.83000000     200.00000000
  4 9 63      94.37000000     200.00000000
  4 9 64      99.03000000     200.00000000
  3 9 65      98.43000000     200.00000000
  3 9 66      97.73000000     200.00000000
  3 9 67     107.67000000     200.00000000
  3 9 68     114.34000000     200.00000000
  3 9 69     113.00000000     200.00000000
  3 9 70     108.77000000     200.00000000
  4 9 71     106.10000000     200.00000000
  4 9 72     106.70000000     200.00000000
  4 9 73     108.57000000     200.00000000
  4 9 74     104.80000000     200.00000000
  4 9 75     110.55000000     200.00000000
  4 9 76     113.36000000     200.00000000
  4 9 77     114.37000000     200.00000000
  4 9 78     115.93000000     200.00000000
  4 9 79     114.57000000     200.00000000
  4 9 80     115.93000000     200.00000000
  4 9 81     109.40000000     200.00000000
  4 9 82     106.30000000     200.00000000
  5 9 83     104.60000000     200.00000000
  3 9 84     108.40000000     200.00000000
  3 9 85     103.23000000     200.00000000
  3 9 86     102.70000000     193.33000000
  3 9 87     106.07000000     110.23000000
  4 10 13     143.04000000      96.21000000
  4 10 14     152.47000000     200.00000000
  4 10 15     148.80000000     200.00000000
  4 10 16     144.57000000     200.00000000
  4 10 17     149.03000000     200.00000000
  3 10 18     154.37000000     200.00000000
  3 10 19     156.33000000     200.00000000
  3 10 20     156.13000000     200.00000000
  3 10 21     154.23000000     200.00000000
  3 10 22     154.57000000     200.00000000
  3 10 23     155.17000000     200.00000000
  3 10 24     161.73000000     200.00000000
  3 10 25     164.47000000     200.00000000
  3 10 26     166.02000000     200.00000000
  3 10 27     165.16000000     200.00000000
  3 10 28     160.73000000     200.00000000
  3 10 29     159.40000000     200.00000000
  3 10 30     164.00000000     200.00000000
  3 10 31     160.67000000     200.00000000
  3 10 32     156.52000000     200.00000000
  3 10 33     156.99000000     200.00000000
  3 10 34     153.60000000     200.00000000
  3 10 35     149.00000000     200.00000000
  3 10 36     145.64000000     200.00000000
  3 10 37     141.47000000     200.00000000
  3 10 38     135.84000000     200.00000000
  3 10 39     123.44000000     200.00000000
  3 10 40     121.50000000     200.00000000
  3 10 41     121.50000000     200.00000000
  3 10 42     121.59000000     200.00000000
  3 10 43     121.50000000     200.00000000
  3 10 44     122.95000000     200.00000000
  3 10 45     125.35000000     200.00000000
  3 10 46     118.60000000     200.00000000
  4 10 47     114.37000000     200.00000000
  4 10 48     116.27000000     200.00000000
  4 10 49     115.56000000     200.00000000
  3 10 50     119.23000000     200.00000000
  3 10 51     120.50000000     200.00000000
  4 10 52     113.40000000     200.00000000
  4 10 53     108.43000000     200.00000000
  4 10 54     106.78000000     200.00000000
  4 10 55     107.47000000     200.00000000
  4 10 56     103.20000000     200.00000000
  4 10 57      95.50000000     200.00000000
  4 10 58      88.03000000     200.00000000
  4 10 59      83.43000000     200.00000000
  4 10 60      81.90000000     200.00000000
  4 10 61      87.30000000     200.00000000
  4 10 62      94.38000000     200.00000000
  4 10 63      96.32000000     200.00000000
  4 10 64      96.62000000     200.00000000
  3 10 65     101.47000000     200.00000000
  4 10 66      96.53000000     200.00000000
  3 10 67     104.46000000     200.00000000
  3 10 68     111.70000000     200.00000000
  3 10 69     114.38000000     200.00000000
  3 10 70     113.60000000     200.00000000
  3 10 71     113.25000000     200.00000000
  3 10 72     110.73000000     200.00000000
  3 10 73     113.80000000     200.00000000
  4 10 74     108.43000000     200.00000000
  4 10 75     109.22000000     200.00000000
  4 10 76     111.59000000     200.00000000
  4 10 77     116.50000000     200.00000000
  4 10 78     116.13000000     200.00000000
  4 10 79     116.33000000     200.00000000
  5 10 80     118.40000000     200.00000000
  4 10 81     113.20000000     200.00000000
  4 10 82     107.83000000     200.00000000
  5 10 83     101.53000000     200.00000000
  5 10 84     104.20000000     200.00000000
  3 10 85     104.00000000     200.00000000
  3 10 86     102.48000000     200.00000000
  3 10 87     104.00000000     200.00000000
  3 10 88     103.54000000     189.49000000
  3 10 89      98.63000000     100.69000000
  4 11 14     141.73000000     200.00000000
  4 11 15     141.87000000     200.00000000
  4 11 16     142.07000000     200.00000000
  3 11 17     147.47000000     200.00000000
  3 11 18     154.03000000     200.00000000
  3 11 19     156.50000000     200.00000000
  3 11 20     156.28000000     200.00000000
  3 11 21     155.53000000     200.00000000
  3 11 22     149.20000000     200.00000000
  3 11 23     151.53000000     200.00000000
  3 11 24     154.60000000     200.00000000
  3 11 25     157.30000000     200.00000000
  3 11 26     154.20000000     200.00000000
  3 11 27     162.47000000     200.00000000
  3 11 28     165.93000000     200.00000000
  3 11 29     163.80000000     200.00000000
  3 11 30     166.30000000     200.00000000
  3 11 31     159.00000000     200.00000000
  4 11 32     159.00000000     200.00000000
  4 11 33     156.58000000     200.00000000
  4 11 34     153.60000000     200.00000000
  3 11 35     148.60000000     200.00000000
  3 11 36     144.95000000     200.00000000
  3 11 37     143.23000000     200.00000000
  3 11 38     136.84000000     200.00000000
  3 11 39     136.50000000     200.00000000
  3 11 40     138.24000000     200.00000000
  3 11 41     123.43000000     200.00000000
  3 11 42     121.50000000     200.00000000
  3 11 43     121.50000000     200.00000000
  3 11 44     121.87000000     200.00000000
  3 11 45     126.50000000     200.00000000
  3 11 46     123.37000000     200.00000000
  3 11 47     118.80000000     200.00000000
  3 11 48     118.90000000     200.00000000
  3 11 49     118.88000000     200.00000000
  3 11 50     119.00000000     200.00000000
  3 11 51     116.48000000     200.00000000
  4 11 52     114.00000000     200.00000000
  3 11 53     116.10000000     200.00000000
  4 11 54     113.26000000     200.00000000
  4 11 55     110.92000000     200.00000000
  4 11 56     106.47000000     200.00000000
  4 11 57     103.17000000     200.00000000
  4 11 58      95.33000000     200.00000000
  4 11 59      88.17000000     200.00000000
  4 11 60      81.50000000     200.00000000
  4 11 61      84.06000000     200.00000000
  4 11 62      89.43000000     200.00000000
  4 11 63      93.72000000     200.00000000
  4 11 64      86.90000000     200.00000000
  4 11 65      92.64000000     200.00000000
  4 11 66      94.57000000     200.00000000
  3 11 67     100.14000000     200.00000000
  3 11 68     107.30000000     200.00000000
  3 11 69     114.37000000     200.00000000
  3 11 70     114.95000000     200.00000000
  3 11 71     109.00000000     200.00000000
  3 11 72     109.60000000     200.00000000
  3 11 73     111.98000000     200.00000000
  3 11 74     112.63000000     200.00000000
  4 11 75     106.90000000     200.00000000
  4 11 76     111.50000000     200.00000000
  4 11 77     111.13000000     200.00000000
  4 11 78     109.20000000     200.00000000
  4 11 79     109.77000000     200.00000000
  4 11 80     111.53000000     200.00000000
  4 11 81     109.52000000     200.00000000
  4 11 82     108.37000000     200.00000000
  4 11 83     103.43000000     200.00000000
  5 11 84     101.50000000     200.00000000
  5 11 85     103.80000000     200.00000000
  3 11 86     101.93000000     200.00000000
  3 11 87     106.02000000     200.00000000
  3 11 88     103.97000000     200.00000000
  3 11 89     101.05000000     200.00000000
  5 11 90      96.87000000     184.79000000
  4 12 14     131.93000000     200.00000000
  4 12 15     134.40000000     200.00000000
  4 12 16     134.97000000     200.00000000
  3 12 17     144.06000000     200.00000000
  3 12 18     145.34000000     200.00000000
  3 12 19     151.73000000     200.00000000
  3 12 20     152.27000000     200.00000000
  3 12 21     153.89000000     200.00000000
  3 12 22     151.48000000     200.00000000
  3 12 23     150.15000000     200.00000000
  3 12 24     154.03000000     200.00000000
  3 12 25     156.10000000     200.00000000
  3 12 26     151.50000000     200.00000000
  3 12 27     153.90000000     200.00000000
  3 12 28     159.03000000     200.00000000
  3 12 29     157.82000000     200.00000000
  4 12 30     164.20000000     200.00000000
  4 12 31     160.70000000     200.00000000
  4 12 32     154.20000000     200.00000000
  4 12 33     153.80000000     200.00000000
  3 12 34     151.22000000     200.00000000
  3 12 35     148.97000000     200.00000000
  3 12 36     145.36000000     200.00000000
  3 12 37     138.77000000     200.00000000
  3 12 38     133.80000000     200.00000000
  3 12 39     129.88000000     200.00000000
  3 12 40     130.34000000     200.00000000
  3 12 41     133.94000000     200.00000000
  3 12 42     130.30000000     200.00000000
  3 12 43     121.50000000     200.00000000
  3 12 44     123.83000000     200.00000000
  3 12 45     126.50000000     200.00000000
  3 12 46     126.12000000     200.00000000
  3 12 47     123.80000000     200.00000000
  3 12 48     123.42000000     200.00000000
  3 12 49     121.40000000     200.00000000
  3 12 50     118.88000000     200.00000000
  3 12 51     118.40000000     200.00000000
  3 12 52     114.00000000     200.00000000
  4 12 53     111.32000000     200.00000000
  4 12 54     111.87000000     200.00000000
  4 12 55     111.27000000     200.00000000
  4 12 56     103.83000000     200.00000000
  4 12 57     103.60000000     200.00000000
  4 12 58      98.23000000     200.00000000
  4 12 59      88.57000000     200.00000000
  5 12 60      81.50000000     200.00000000
  4 12 61      80.86000000     200.00000000
  4 12 62      84.03000000     200.00000000
  4 12 63      84.00000000     200.00000000
  6 12 64      79.77000000     200.00000000
  4 12 65      92.07000000     200.00000000
  4 12 66      96.33000000     200.00000000
  3 12 67      99.06000000     200.00000000
  3 12 68     105.03000000     200.00000000
  3 12 69     114.57000000     200.00000000
  3 12 70     116.07000000     200.00000000
  3 12 71     110.93000000     200.00000000
  3 12 72     109.00000000     200.00000000
  4 12 73     107.70000000     200.00000000
  4 12 74     111.24000000     200.00000000
  4 12 75     106.90000000     200.00000000
  4 12 76     116.67000000     200.00000000
  4 12 77     115.73000000     200.00000000
  4 12 78     115.33000000     200.00000000
  4 12 79     106.50000000     200.00000000
  4 12 80     106.50000000     200.00000000
  4 12 81     106.87000000     200.00000000
  4 12 82     110.36000000     200.00000000
  4 12 83     108.77000000     200.00000000
  4 12 84     105.93000000     200.00000000
  3 12 85     112.24000000     200.00000000
  3 12 86     110.93000000     200.00000000
  3 12 87     111.27000000     200.00000000
  3 12 88     110.73000000     200.00000000
  4 12 89     105.35000000     200.00000000
  5 12 90     101.70000000     200.00000000
  5 12 91      98.20000000     200.00000000
  5 12 92      94.20000000     169.99000000
  4 13 14     122.10000000     184.63000000
  4 13 15     127.10000000     200.00000000
  3 13 16     132.47000000     200.00000000
  3 13 17     141.50000000     200.00000000
  3 13 18     139.23000000     200.00000000
  3 13 19     142.27000000     200.00000000
  3 13 20     147.10000000     200.00000000
  3 13 21     149.11000000     200.00000000
  3 13 22     149.18000000     200.00000000
  3 13 23     146.70000000     200.00000000
  3 13 24     147.10000000     200.00000000
  3 13 25     152.44000000      85.90000000
  3 13 26     159.17000000     214.76000000
  3 13 27     155.73000000     217.32000000
  3 13 28     151.16000000      12.02000000
  4 13 29     152.30000000     200.00000000
  4 13 30     154.80000000     200.00000000
  4 13 31     156.47000000     200.00000000
  4 13 32     147.27000000     200.00000000
  4 13 33     153.03000000     200.00000000
  3 13 34     146.30000000     200.00000000
  3 13 35     146.87000000     200.00000000
  3 13 36     144.14000000     200.00000000
  3 13 37     138.60000000     200.00000000
  3 13 38     131.10000000     200.00000000
  3 13 39     128.64000000     200.00000000
  3 13 40     127.10000000     200.00000000
  3 13 41     131.53000000     200.00000000
  3 13 42     133.63000000     200.00000000
  3 13 43     128.97000000     200.00000000
  3 13 44     129.20000000     200.00000000
  3 13 45     133.23000000     200.00000000
  3 13 46     128.97000000     200.00000000
  3 13 47     126.50000000     200.00000000
  3 13 48     126.02000000     200.00000000
  3 13 49     123.52000000     200.00000000
  3 13 50     118.61000000     200.00000000
  3 13 51     118.98000000     200.00000000
  3 13 52     118.20000000     200.00000000
  4 13 53     108.23000000     200.00000000
  4 13 54      99.40000000     200.00000000
  4 13 55     101.10000000     200.00000000
  4 13 56      96.33000000     200.00000000
  4 13 57      92.07000000     200.00000000
  4 13 58      91.53000000     200.00000000
  4 13 59      88.80000000     200.00000000
  4 13 60      85.53000000     200.00000000
  6 13 61      79.09000000     200.00000000
  4 13 62      81.58000000     200.00000000
  6 13 63      81.10000000     200.00000000
  6 13 64      75.17000000     200.00000000
  4 13 65      85.06000000     200.00000000
  4 13 66      92.67000000     200.00000000
  4 13 67      97.02000000     200.00000000
  3 13 68     104.06000000     200.00000000
  3 13 69     107.67000000     200.00000000
  3 13 70     116.50000000     200.00000000
  3 13 71     113.49000000     200.00000000
  4 13 72     111.40000000     200.00000000
  4 13 73     108.43000000     200.00000000
  4 13 74     106.33000000     200.00000000
  4 13 75     104.97000000     200.00000000
  4 13 76     115.54000000     200.00000000
  3 13 77     121.10000000     200.00000000
  4 13 78     118.60000000     200.00000000
  4 13 79     112.83000000     200.00000000
  4 13 80     108.80000000     200.00000000
  4 13 81     108.86000000     200.00000000
  4 13 82     111.50000000     200.00000000
  4 13 83     111.33000000     200.00000000
  3 13 84     113.37000000     200.00000000
  3 13 85     115.00000000     200.00000000
  3 13 86     121.27000000     200.00000000
  3 13 87     121.10000000     200.00000000
  3 13 88     117.83000000     200.00000000
  4 13 89     110.67000000     200.00000000
  4 13 90     105.93000000     200.00000000
  5 13 91     102.43000000     200.00000000
  5 13 92      96.70000000     200.00000000
  5 13 93      99.20000000     199.99000000
  4 13 94     102.07000000     139.53000000
  4 14 14     120.08000000     150.67000000
  4 14 15     119.60000000     200.00000000
  4 14 16     122.53000000     200.00000000
  3 14 17     131.76000000     200.00000000
  3 14 18     136.50000000     200.00000000
  3 14 19     134.20000000     200.00000000
  3 14 20     137.27000000     200.00000000
  3 14 21     139.97000000     200.00000000
  3 14 22     141.87000000     200.00000000
  3 14 23     141.70000000     200.00000000
  3 14 24     143.07000000     200.00000000
  3 14 25     147.50000000     200.00000000
  3 14 26     154.60000000     200.00000000
  3 14 27     156.47000000     200.00000000
  3 14 28     148.97000000     228.36000000
  3 14 29     148.63000000     132.20000000
  4 14 30     146.30000000     200.00000000
  4 14 31     143.83000000     200.00000000
  4 14 32     139.97000000     200.00000000
  4 14 33     140.50000000     200.00000000
  3 14 34     143.40000000     200.00000000
  3 14 35     137.70000000     200.00000000
  3 14 36     141.53000000     200.00000000
  3 14 37     137.63000000     200.00000000
  3 14 38     131.67000000     200.00000000
  3 14 39     130.70000000     200.00000000
  3 14 40     127.07000000     200.00000000
  3 14 41     131.53000000     200.00000000
  3 14 42     133.77000000     200.00000000
  3 14 43     131.50000000     200.00000000
  3 14 44     131.50000000     200.00000000
  3 14 45     134.80000000     200.00000000
  3 14 46     133.20000000     200.00000000
  3 14 47     126.12000000     200.00000000
  3 14 48     124.08000000     200.00000000
  3 14 49     122.27000000     200.00000000
  3 14 50     116.30000000     200.00000000
  3 14 51     113.02000000     200.00000000
  3 14 52     111.30000000     200.00000000
  3 14 53     108.57000000     200.00000000
  4 14 54     103.40000000     200.00000000
  4 14 55      98.20000000     200.00000000
  4 14 56      93.60000000     200.00000000
  4 14 57      91.47000000     200.00000000
  4 14 58      88.23000000     200.00000000
  5 14 59      81.33000000     200.00000000
  5 14 60      78.80000000     200.00000000
  6 14 61      76.62000000     200.00000000
  6 14 62      79.23000000     200.00000000
  6 14 63      78.00000000     200.00000000
  6 14 64      75.17000000     200.00000000
  4 14 65      95.76000000     200.00000000
  4 14 66      98.80000000     200.00000000
  4 14 67      98.80000000     200.00000000
  4 14 68      99.00000000     200.00000000
  3 14 69     104.80000000     200.00000000
  3 14 70     111.70000000     200.00000000
  3 14 71     112.07000000     200.00000000
  4 14 72     106.70000000     200.00000000
  4 14 73     111.38000000     200.00000000
  4 14 74     110.73000000     200.00000000
  4 14 75     106.90000000     200.00000000
  4 14 76     114.26000000     200.00000000
  4 14 77     116.88000000     200.00000000
  4 14 78     117.63000000     200.00000000
  4 14 79     113.63000000     200.00000000
  4 14 80     109.17000000     200.00000000
  4 14 81     109.38000000     200.00000000
  4 14 82     111.50000000     200.00000000
  3 14 83     114.40000000     200.00000000
  3 14 84     116.22000000     200.00000000
  3 14 85     116.93000000     200.00000000
  3 14 86     124.37000000     200.00000000
  3 14 87     127.43000000     200.00000000
  3 14 88     120.90000000     200.00000000
  4 14 89     113.70000000     200.00000000
  4 14 90     113.43000000     200.00000000
  5 14 91     108.03000000     200.00000000
  4 14 92     103.63000000     200.00000000
  4 14 93     108.03000000     200.00000000
  5 14 94     100.87000000     200.00000000
  5 14 95      92.04000000     194.21000000
  5 14 96     101.27000000     104.28000000
  4 15 14     119.00000000     135.28000000
  4 15 15     119.14000000     200.00000000
  4 15 16     119.00000000     200.00000000
  4 15 17     119.80000000     200.00000000
  3 15 18     123.80000000     200.00000000
  3 15 19     131.67000000     200.00000000