# File generated by Flopy version 3.3.6 on 06/20/2023 at 13:13:06.
BEGIN options
  BUDGET  FILEOUT  egebjerg.cbb
  HEAD  FILEOUT  egebjerg.hds
END options

BEGIN period  1
  SAVE  HEAD  ALL
  SAVE  BUDGET  ALL
  PRINT  BUDGET  LAST
END period  1

