# File generated by Flopy version 3.3.6 on 06/20/2023 at 13:13:06.
BEGIN options
END options

BEGIN dimensions
  MAXBOUND  76
END dimensions

BEGIN period  1
  2 11 40     -32.64000000
  2 12 41    -390.97100000
  3 12 41     -47.28800000
  4 12 41     -24.17200000
  4 46 11      -2.68900000
  4 94 100      -0.29800000
  5 12 41      -5.45900000
  5 36 101     -98.31500000
  5 40 83     -82.26000000
  5 46 11      -5.52100000
  6 46 59    -177.80800000
  5 70 100      -2.48400000
  6 12 41      -6.77000000
  6 29 24     -11.88900000
  8 35 101      -9.46300000
  8 36 101     -37.87900000
  7 36 102     -51.84900000
  6 40 83     -61.88400000
  6 46 59     -18.19400000
  6 60 106      -1.99000000
  6 70 100      -0.69800000
  6 71 96     -14.59600000
  6 71 117     -88.47300000
  6 74 68     -50.40000000
  6 82 53    -748.33600000
  6 83 51    -374.16800000
  6 83 54    -713.93700000
  6 84 52    -241.40100000
  6 84 55    -374.16800000
  6 84 56    -374.16800000
  6 84 57    -374.16800000
  6 84 58    -374.16800000
  6 84 86     -21.58200000
  6 85 86     -51.91800000
  6 99 57     -18.26000000
  6 100 53      -0.19900000
  7 12 41      -0.21200000
  8 35 101      -0.25900000
  8 36 101      -0.41500000
  7 82 58    -978.29600000
  7 83 54     -69.18200000
  7 83 58    -893.32600000
  7 84 52      -0.56100000
  7 84 58    -455.91500000
  7 84 59    -341.98900000
  7 85 53    -180.38000000
  7 85 86      -1.92800000
  13 15 59    -165.34800000
  8 35 101      -0.25900000
  8 36 101      -0.41500000
  8 80 61    -269.19500000
  8 82 58    -372.63400000
  8 83 58    -333.85100000
  8 84 58    -318.04300000
  8 84 59    -329.17100000
  8 84 86      -0.63500000
  8 85 53    -430.82300000
  8 98 44     -28.62900000
  8 140 59     -24.03600000
  9 35 101      -0.25900000
  9 36 101      -0.41500000
  9 37 104     -57.47000000
  9 80 61    -172.88400000
  9 84 86      -0.76900000
  13 35 101      -0.25900000
  12 36 101      -0.41500000
  12 37 104     -41.56800000
  13 35 101      -0.25900000
  12 36 101      -0.41500000
  13 35 101      -0.25900000
  12 36 101      -0.41500000
  12 65 21      -4.16900000
  12 128 100    -273.78500000
  13 35 101     -44.20400000
  13 36 101      -4.71600000
  9 58 68   -3145.00000000
END period  1

