# File generated by Flopy version 3.3.6 on 06/20/2023 at 13:13:06.
BEGIN griddata
  strt
    CONSTANT      50.00000000
END griddata

