# File generated by Flopy version 3.3.6 on 06/20/2023 at 13:13:06.
BEGIN options
END options

BEGIN dimensions
  MAXBOUND  12665
END dimensions

BEGIN period  1
  2 3 28  4.81000000E-04
  2 4 22  8.80000000E-04
  2 4 23  8.06000000E-04
  2 4 24  7.32000000E-04
  2 4 25  6.58000000E-04
  2 4 26  5.84000000E-04
  3 4 27  5.25000000E-04
  2 4 28  4.81000000E-04
  2 4 29  4.36000000E-04
  3 4 30  3.92000000E-04
  2 4 31  3.48000000E-04
  2 4 32  2.62000000E-04
  2 4 33  1.62000000E-04
  2 4 34  6.20000000E-05
  1 5 19  7.39000000E-04
  2 5 20  7.95000000E-04
  2 5 21  8.52000000E-04
  2 5 22  8.80000000E-04
  1 5 23  8.06000000E-04
  1 5 24  7.32000000E-04
  2 5 25  6.58000000E-04
  2 5 26  5.84000000E-04
  2 5 27  5.25000000E-04
  2 5 28  4.81000000E-04
  2 5 29  4.36000000E-04
  3 5 30  3.92000000E-04
  2 5 31  3.48000000E-04
  2 5 32  2.62000000E-04
  2 5 33  1.62000000E-04
  2 5 34  6.20000000E-05
  1 5 35       0.00000000
  1 5 36       0.00000000
  1 5 37       0.00000000
  1 5 71  3.30000000E-04
  1 5 72  3.30000000E-04
  1 5 73  3.29000000E-04
  1 6 18  6.83000000E-04
  1 6 19  7.39000000E-04
  1 6 20  7.95000000E-04
  2 6 21  8.52000000E-04
  2 6 22  8.80000000E-04
  1 6 23  8.06000000E-04
  1 6 24  7.32000000E-04
  1 6 25  6.58000000E-04
  2 6 26  5.84000000E-04
  1 6 27  5.25000000E-04
  2 6 28  4.81000000E-04
  2 6 29  4.36000000E-04
  3 6 30  3.92000000E-04
  2 6 31  3.48000000E-04
  2 6 32  2.62000000E-04
  2 6 33  1.62000000E-04
  2 6 34  6.20000000E-05
  1 6 35       0.00000000
  1 6 36       0.00000000
  1 6 37       0.00000000
  1 6 38       0.00000000
  1 6 39       0.00000000
  2 6 40       0.00000000
  2 6 41       0.00000000
  1 6 66  3.32000000E-04
  1 6 67  3.32000000E-04
  1 6 68  3.31000000E-04
  1 6 69  3.31000000E-04
  1 6 70  3.31000000E-04
  1 6 71  3.30000000E-04
  1 6 72  3.30000000E-04
  1 6 73  3.29000000E-04
  2 6 74  3.29000000E-04
  2 6 75  3.28000000E-04
  1 6 76  3.28000000E-04
  1 6 77  3.27000000E-04
  1 6 78  3.27000000E-04
  1 6 79  3.26000000E-04
  1 6 80  3.25000000E-04
  2 7 16  6.46000000E-04
  1 7 17  6.30000000E-04
  1 7 18  6.83000000E-04
  1 7 19  7.39000000E-04
  1 7 20  7.95000000E-04
  1 7 21  8.52000000E-04
  1 7 22  8.80000000E-04
  1 7 23  8.06000000E-04
  1 7 24  7.32000000E-04
  2 7 25  6.58000000E-04
  2 7 26  5.84000000E-04
  1 7 27  5.25000000E-04
  1 7 28  4.81000000E-04
  2 7 29  4.36000000E-04
  3 7 30  3.92000000E-04
  2 7 31  3.48000000E-04
  2 7 32  2.62000000E-04
  2 7 33  1.62000000E-04
  1 7 34  6.20000000E-05
  1 7 35       0.00000000
  1 7 36       0.00000000
  1 7 37       0.00000000
  1 7 38       0.00000000
  1 7 39       0.00000000
  1 7 40       0.00000000
  2 7 41       0.00000000
  2 7 42       0.00000000
  2 7 43       0.00000000
  1 7 44       0.00000000
  1 7 45       0.00000000
  1 7 46       0.00000000
  1 7 63       0.00000000
  1 7 64  1.52000000E-04
  1 7 65  3.32000000E-04
  1 7 66  3.32000000E-04
  1 7 67  3.32000000E-04
  1 7 68  3.31000000E-04
  1 7 69  3.31000000E-04
  2 7 70  3.31000000E-04
  1 7 71  3.30000000E-04
  1 7 72  3.30000000E-04
  1 7 73  3.29000000E-04
  1 7 74  3.29000000E-04
  1 7 75  3.28000000E-04
  1 7 76  3.28000000E-04
  1 7 77  3.27000000E-04
  1 7 78  3.27000000E-04
  1 7 79  3.26000000E-04
  1 7 80  3.25000000E-04
  1 7 81  3.24000000E-04
  2 7 82  3.24000000E-04
  2 7 83  3.23000000E-04
  2 8 15  6.85000000E-04
  1 8 16  6.77000000E-04
  1 8 17  6.68000000E-04
  1 8 18  7.17000000E-04
  1 8 19  7.68000000E-04
  1 8 20  8.20000000E-04
  1 8 21  8.72000000E-04
  1 8 22  8.98000000E-04
  1 8 23  8.26000000E-04
  1 8 24  7.55000000E-04
  2 8 25  6.83000000E-04
  1 8 26  6.12000000E-04
  1 8 27  5.54000000E-04
  1 8 28  5.11000000E-04
  1 8 29  4.68000000E-04
  1 8 30  4.25000000E-04
  2 8 31  3.82000000E-04
  2 8 32  2.67000000E-04
  2 8 33  1.28000000E-04
  2 8 34       0.00000000
  2 8 35       0.00000000
  1 8 36       0.00000000
  1 8 37       0.00000000
  1 8 38       0.00000000
  1 8 39       0.00000000
  1 8 40       0.00000000
  1 8 41       0.00000000
  1 8 42       0.00000000
  1 8 43       0.00000000
  1 8 44       0.00000000
  1 8 45       0.00000000
  1 8 46       0.00000000
  1 8 47       0.00000000
  2 8 48       0.00000000
  3 8 49       0.00000000
  3 8 50       0.00000000
  1 8 51       0.00000000
  2 8 59       0.00000000
  2 8 60       0.00000000
  1 8 61       0.00000000
  1 8 62       0.00000000
  1 8 63       0.00000000
  1 8 64  1.33000000E-04
  1 8 65  3.02000000E-04
  1 8 66  3.15000000E-04
  1 8 67  3.27000000E-04
  1 8 68  3.39000000E-04
  1 8 69  3.52000000E-04
  2 8 70  3.48000000E-04
  2 8 71  3.43000000E-04
  2 8 72  3.38000000E-04
  1 8 73  3.33000000E-04
  1 8 74  3.30000000E-04
  1 8 75  3.38000000E-04
  1 8 76  3.45000000E-04
  1 8 77  3.52000000E-04
  1 8 78  3.59000000E-04
  1 8 79  3.59000000E-04
  1 8 80  3.51000000E-04
  2 8 81  3.42000000E-04
  2 8 82  3.33000000E-04
  2 8 83  3.25000000E-04
  2 8 84  3.26000000E-04
  1 8 85  3.31000000E-04
  1 9 14  7.46000000E-04
  1 9 15  7.57000000E-04
  1 9 16  7.69000000E-04
  1 9 17  7.80000000E-04
  1 9 18  8.17000000E-04
  1 9 19  8.55000000E-04
  1 9 20  8.93000000E-04
  1 9 21  9.31000000E-04
  1 9 22  9.48000000E-04
  1 9 23  8.84000000E-04
  1 9 24  8.20000000E-04
  1 9 25  7.56000000E-04
  1 9 26  6.92000000E-04
  1 9 27  6.40000000E-04
  1 9 28  6.00000000E-04
  1 9 29  5.61000000E-04
  1 9 30  5.21000000E-04
  1 9 31  4.82000000E-04
  1 9 32  2.82000000E-04
  1 9 33  2.80000000E-05
  1 9 34       0.00000000
  1 9 35       0.00000000
  1 9 36       0.00000000
  1 9 37       0.00000000
  1 9 38       0.00000000
  1 9 39       0.00000000
  1 9 40       0.00000000
  1 9 41       0.00000000
  1 9 42       0.00000000
  1 9 43       0.00000000
  1 9 44       0.00000000
  1 9 45       0.00000000
  1 9 46       0.00000000
  1 9 47       0.00000000
  2 9 48       0.00000000
  1 9 49       0.00000000
  1 9 50       0.00000000
  1 9 51       0.00000000
  1 9 52       0.00000000
  1 9 53       0.00000000
  1 9 54       0.00000000
  1 9 55       0.00000000
  2 9 56       0.00000000
  3 9 57       0.00000000
  3 9 58       0.00000000
  2 9 59       0.00000000
  2 9 60       0.00000000
  1 9 61       0.00000000
  1 9 62       0.00000000
  1 9 63       0.00000000
  1 9 64  7.70000000E-05
  1 9 65  2.14000000E-04
  1 9 66  2.64000000E-04
  1 9 67  3.14000000E-04
  1 9 68  3.63000000E-04
  1 9 69  4.13000000E-04
  1 9 70  4.01000000E-04
  1 9 71  3.82000000E-04
  1 9 72  3.64000000E-04
  2 9 73  3.45000000E-04
  1 9 74  3.35000000E-04
  1 9 75  3.65000000E-04
  1 9 76  3.95000000E-04
  1 9 77  4.26000000E-04
  1 9 78  4.56000000E-04
  1 9 79  4.59000000E-04
  2 9 80  4.26000000E-04
  2 9 81  3.94000000E-04
  2 9 82  3.62000000E-04
  1 9 83  3.30000000E-04
  1 9 84  3.37000000E-04
  1 9 85  3.61000000E-04
  1 9 86  3.84000000E-04
  1 9 87  4.08000000E-04
  1 10 13  7.66000000E-04
  1 10 14  7.97000000E-04
  1 10 15  8.29000000E-04
  1 10 16  8.60000000E-04
  1 10 17  8.92000000E-04
  1 10 18  9.17000000E-04
  1 10 19  9.42000000E-04
  1 10 20  9.66000000E-04
  1 10 21  9.91000000E-04
  1 10 22  9.99000000E-04
  1 10 23  9.42000000E-04
  1 10 24  8.85000000E-04
  1 10 25  8.29000000E-04
  1 10 26  7.72000000E-04
  1 10 27  7.25000000E-04
  1 10 28  6.90000000E-04
  1 10 29  6.54000000E-04
  1 10 30  6.18000000E-04
  1 10 31  5.82000000E-04
  1 10 32  2.97000000E-04
  1 10 33       0.00000000
  1 10 34       0.00000000
  1 10 35       0.00000000
  1 10 36       0.00000000
  1 10 37       0.00000000
  1 10 38       0.00000000
  1 10 39       0.00000000
  1 10 40       0.00000000
  1 10 41       0.00000000
  1 10 42       0.00000000
  1 10 43       0.00000000
  1 10 44       0.00000000
  1 10 45       0.00000000
  1 10 46  3.20000000E-05
  1 10 47  4.00000000E-05
  1 10 48  4.80000000E-05
  1 10 49  5.60000000E-05
  1 10 50  6.40000000E-05
  1 10 51  1.90000000E-05
  2 10 52       0.00000000
  1 10 53       0.00000000
  1 10 54       0.00000000
  1 10 55       0.00000000
  2 10 56       0.00000000
  2 10 57       0.00000000
  2 10 58       0.00000000
  2 10 59       0.00000000
  1 10 60       0.00000000
  1 10 61       0.00000000
  1 10 62       0.00000000
  1 10 63       0.00000000
  1 10 64  2.20000000E-05
  1 10 65  1.25000000E-04
  1 10 66  2.13000000E-04
  1 10 67  3.00000000E-04
  1 10 68  3.87000000E-04
  1 10 69  4.75000000E-04
  1 10 70  4.54000000E-04
  1 10 71  4.22000000E-04
  1 10 72  3.89000000E-04
  2 10 73  3.57000000E-04
  1 10 74  3.40000000E-04
  1 10 75  3.93000000E-04
  1 10 76  4.46000000E-04
  1 10 77  4.99000000E-04
  1 10 78  5.53000000E-04
  1 10 79  5.58000000E-04
  1 10 80  5.02000000E-04
  2 10 81  4.47000000E-04
  2 10 82  3.91000000E-04
  1 10 83  3.35000000E-04
  1 10 84  3.49000000E-04
  1 10 85  3.90000000E-04
  1 10 86  4.32000000E-04
  1 10 87  4.73000000E-04
  2 10 88  5.14000000E-04
  3 10 89  5.08000000E-04
  1 11 14  8.49000000E-04
  1 11 15  9.00000000E-04
  1 11 16  9.52000000E-04
  1 11 17       0.00100400
  1 11 18       0.00101700
  1 11 19       0.00102800
  1 11 20       0.00104000
  1 11 21       0.00105100
  1 11 22       0.00104900
  1 11 23       0.00100000
  1 11 24  9.51000000E-04
  1 11 25  9.02000000E-04
  1 11 26  8.52000000E-04
  1 11 27  8.11000000E-04
  1 11 28  7.79000000E-04
  1 11 29  7.47000000E-04
  1 11 30  7.14000000E-04
  1 11 31  6.82000000E-04
  1 11 32  3.11000000E-04
  1 11 33       0.00000000
  1 11 34       0.00000000
  1 11 35       0.00000000
  1 11 36       0.00000000
  1 11 37       0.00000000
  1 11 38       0.00000000
  1 11 39       0.00000000
  1 11 40       0.00000000
  1 11 41       0.00000000
  1 11 42       0.00000000
  1 11 43       0.00000000
  1 11 44  1.46000000E-04
  1 11 45  3.39000000E-04
  1 11 46  4.29000000E-04
  1 11 47  4.37000000E-04
  1 11 48  4.45000000E-04
  1 11 49  4.53000000E-04
  1 11 50  4.62000000E-04
  1 11 51  4.33000000E-04
  1 11 52  3.96000000E-04
  1 11 53  3.59000000E-04
  1 11 54  3.22000000E-04
  1 11 55  2.84000000E-04
  2 11 56  2.38000000E-04
  2 11 57  1.92000000E-04
  2 11 58  1.46000000E-04
  2 11 59  1.00000000E-04
  2 11 60  6.20000000E-05
  1 11 61  3.80000000E-05
  1 11 62  1.40000000E-05
  1 11 63       0.00000000
  1 11 64       0.00000000
  1 11 65  3.70000000E-05
  1 11 66  1.62000000E-04
  1 11 67  2.86000000E-04
  1 11 68  4.11000000E-04
  1 11 69  5.36000000E-04
  1 11 70  5.07000000E-04
  1 11 71  4.61000000E-04
  1 11 72  4.15000000E-04
  1 11 73  3.69000000E-04
  1 11 74  3.44000000E-04
  1 11 75  4.20000000E-04
  1 11 76  4.97000000E-04
  1 11 77  5.73000000E-04
  1 11 78  6.49000000E-04
  1 11 79  6.57000000E-04
  1 11 80  5.78000000E-04
  2 11 81  4.99000000E-04
  2 11 82  4.20000000E-04
  2 11 83  3.41000000E-04
  1 11 84  3.60000000E-04
  1 11 85  4.20000000E-04
  1 11 86  4.79000000E-04
  1 11 87  5.38000000E-04
  2 11 88  5.98000000E-04
  2 11 89  5.88000000E-04
  1 11 90  5.78000000E-04
  1 12 14  9.00000000E-04
  1 12 15  9.72000000E-04
  1 12 16       0.00104400
  1 12 17       0.00111600
  1 12 18       0.00111800
  1 12 19       0.00111500
  1 12 20       0.00111300
  1 12 21       0.00111000
  1 12 22       0.00109900
  1 12 23       0.00105800
  1 12 24       0.00101600
  1 12 25  9.74000000E-04
  1 12 26  9.33000000E-04
  1 12 27  8.97000000E-04
  1 12 28  8.68000000E-04
  1 12 29  8.39000000E-04
  1 12 30  8.11000000E-04
  1 12 31  7.82000000E-04
  1 12 32  3.26000000E-04
  1 12 33       0.00000000
  1 12 34       0.00000000
  1 12 35       0.00000000
  1 12 36       0.00000000
  1 12 37       0.00000000
  1 12 38       0.00000000
  1 12 39       0.00000000
  1 12 40       0.00000000
  1 12 41  2.34000000E-04
  1 12 42  3.66000000E-04
  1 12 43  4.98000000E-04
  1 12 44  6.30000000E-04
  1 12 45  7.63000000E-04
  1 12 46  8.26000000E-04
  1 12 47  8.34000000E-04
  1 12 48  8.42000000E-04
  1 12 49  8.51000000E-04
  1 12 50  8.59000000E-04
  1 12 51  8.46000000E-04
  1 12 52  8.29000000E-04
  1 12 53  8.11000000E-04
  1 12 54  7.94000000E-04
  1 12 55  7.76000000E-04
  1 12 56  7.59000000E-04
  2 12 57  7.41000000E-04
  2 12 58  7.24000000E-04
  2 12 59  7.06000000E-04
  3 12 60  6.29000000E-04
  3 12 61  4.50000000E-04
  3 12 62  2.70000000E-04
  3 12 63  9.10000000E-05
  1 12 64       0.00000000
  1 12 65       0.00000000
  1 12 66  1.11000000E-04
  1 12 67  2.73000000E-04
  1 12 68  4.35000000E-04
  1 12 69  5.97000000E-04
  1 12 70  5.59000000E-04
  1 12 71  5.00000000E-04
  1 12 72  4.40000000E-04
  1 12 73  3.81000000E-04
  1 12 74  3.49000000E-04
  1 12 75  4.48000000E-04
  1 12 76  5.47000000E-04
  1 12 77  6.47000000E-04
  1 12 78  7.46000000E-04
  1 12 79  7.56000000E-04
  1 12 80  6.53000000E-04
  1 12 81  5.51000000E-04
  2 12 82  4.49000000E-04
  2 12 83  3.46000000E-04
  1 12 84  3.72000000E-04
  1 12 85  4.49000000E-04
  1 12 86  5.26000000E-04
  1 12 87  6.04000000E-04
  1 12 88  6.81000000E-04
  1 12 89  6.69000000E-04
  3 12 90  6.55000000E-04
  3 12 91  6.41000000E-04
  3 12 92  6.28000000E-04
  1 13 14  8.92000000E-04
  1 13 15  9.62000000E-04
  1 13 16       0.00103200
  1 13 17       0.00110200
  1 13 18       0.00109900
  1 13 19       0.00109100
  1 13 20       0.00108300
  1 13 21       0.00107500
  1 13 22       0.00106100
  1 13 23       0.00102700
  1 13 24  9.93000000E-04
  1 13 25  9.58000000E-04
  1 13 26  9.24000000E-04
  1 13 27  8.62000000E-04
  1 13 28  7.69000000E-04
  1 13 29  6.77000000E-04
  1 13 30  5.84000000E-04
  1 13 31  4.92000000E-04
  1 13 32  9.40000000E-05
  1 13 33       0.00000000
  1 13 34       0.00000000
  1 13 35       0.00000000
  1 13 36       0.00000000
  1 13 37       0.00000000
  1 13 38       0.00000000
  1 13 39       0.00000000
  1 13 40  1.83000000E-04
  1 13 41  5.79000000E-04
  1 13 42  6.73000000E-04
  1 13 43  7.67000000E-04
  1 13 44  8.62000000E-04
  1 13 45  9.56000000E-04
  1 13 46       0.00100100
  1 13 47       0.00100800
  1 13 48       0.00101400
  1 13 49       0.00102000
  1 13 50       0.00102700
  1 13 51       0.00102100
  1 13 52       0.00101300
  1 13 53       0.00100500
  1 13 54  9.98000000E-04
  1 13 55  9.90000000E-04
  2 13 56  9.85000000E-04
  2 13 57  9.81000000E-04
  2 13 58  9.76000000E-04
  1 13 59  9.71000000E-04
  3 13 60  8.87000000E-04
  3 13 61  6.63000000E-04
  3 13 62  4.40000000E-04
  3 13 63  2.16000000E-04
  2 13 64       0.00000000
  1 13 65  1.50000000E-05
  1 13 66  1.78000000E-04
  1 13 67  3.41000000E-04
  1 13 68  5.04000000E-04
  1 13 69  6.67000000E-04
  1 13 70  6.26000000E-04
  1 13 71  5.62000000E-04
  1 13 72  4.99000000E-04
  1 13 73  4.36000000E-04
  1 13 74  4.00000000E-04
  1 13 75  4.97000000E-04
  1 13 76  5.94000000E-04
  1 13 77  6.90000000E-04
  1 13 78  7.87000000E-04
  1 13 79  7.97000000E-04
  1 13 80  6.97000000E-04
  1 13 81  5.98000000E-04
  1 13 82  4.98000000E-04
  1 13 83  3.99000000E-04
  1 13 84  4.24000000E-04
  1 13 85  4.99000000E-04
  1 13 86  5.75000000E-04
  1 13 87  6.50000000E-04
  1 13 88  7.26000000E-04
  1 13 89  7.08000000E-04
  3 13 90  6.89000000E-04
  3 13 91  6.69000000E-04
  2 13 92  6.50000000E-04
  2 13 93  6.40000000E-04
  3 13 94  6.58000000E-04
  1 14 14  8.37000000E-04
  1 14 15  8.88000000E-04
  1 14 16  9.40000000E-04
  1 14 17  9.91000000E-04
  1 14 18  9.88000000E-04
  1 14 19  9.81000000E-04
  1 14 20  9.73000000E-04
  1 14 21  9.66000000E-04
  1 14 22  9.55000000E-04
  1 14 23  9.28000000E-04
  1 14 24  9.01000000E-04
  1 14 25  8.74000000E-04
  1 14 26  8.47000000E-04
  1 14 27  7.33000000E-04
  1 14 28  5.25000000E-04
  1 14 29  3.17000000E-04
  1 14 30  1.09000000E-04
  1 14 31       0.00000000
  1 14 32       0.00000000
  1 14 33       0.00000000
  1 14 34       0.00000000
  1 14 35       0.00000000
  1 14 36       0.00000000
  1 14 37       0.00000000
  1 14 38       0.00000000
  1 14 39       0.00000000
  1 14 40  3.65000000E-04
  1 14 41  6.76000000E-04
  1 14 42  7.50000000E-04
  1 14 43  8.24000000E-04
  1 14 44  8.98000000E-04
  1 14 45  9.72000000E-04
  1 14 46       0.00100600
  1 14 47       0.00100900
  1 14 48       0.00101200
  1 14 49       0.00101500
  1 14 50       0.00101700
  1 14 51       0.00101300
  1 14 52       0.00100700
  1 14 53       0.00100100
  1 14 54  9.95000000E-04
  1 14 55  9.89000000E-04
  1 14 56  9.85000000E-04
  2 14 57  9.82000000E-04
  2 14 58  9.78000000E-04
  3 14 59  9.74000000E-04
  3 14 60  9.05000000E-04
  3 14 61  7.24000000E-04
  3 14 62  5.43000000E-04
  3 14 63  3.61000000E-04
  1 14 64  1.80000000E-04
  1 14 65  2.00000000E-04
  1 14 66  3.36000000E-04
  1 14 67  4.72000000E-04
  1 14 68  6.07000000E-04
  1 14 69  7.43000000E-04
  1 14 70  7.02000000E-04
  1 14 71  6.43000000E-04
  1 14 72  5.84000000E-04
  1 14 73  5.24000000E-04
  1 14 74  4.88000000E-04
  1 14 75  5.62000000E-04
  1 14 76  6.37000000E-04
  1 14 77  7.11000000E-04
  1 14 78  7.85000000E-04
  2 14 79  7.93000000E-04
  1 14 80  7.17000000E-04
  1 14 81  6.40000000E-04
  1 14 82  5.64000000E-04
  1 14 83  4.88000000E-04
  1 14 84  5.07000000E-04
  1 14 85  5.65000000E-04
  1 14 86  6.24000000E-04
  1 14 87  6.82000000E-04
  1 14 88  7.40000000E-04
  1 14 89  7.14000000E-04
  1 14 90  6.88000000E-04
  2 14 91  6.61000000E-04
  2 14 92  6.34000000E-04
  2 14 93  6.19000000E-04
  3 14 94  6.41000000E-04
  2 14 95  6.64000000E-04
  2 14 96  6.86000000E-04
  1 15 14  7.82000000E-04
  1 15 15  8.15000000E-04
  1 15 16  8.48000000E-04
  1 15 17  8.81000000E-04
  1 15 18  8.77000000E-04
  1 15 19  8.70000000E-04
  1 15 20  8.64000000E-04
  1 15 21  8.58000000E-04
  1 15 22  8.49000000E-04
  1 15 23  8.29000000E-04
  1 15 24  8.09000000E-04
  1 15 25  7.89000000E-04
  1 15 26  7.69000000E-04
  1 15 27  6.04000000E-04
  1 15 28  2.80000000E-04
  1 15 29       0.00000000
  1 15 30       0.00000000
  1 15 31       0.00000000
  1 15 32       0.00000000
  1 15 33       0.00000000
  1 15 34       0.00000000
  1 15 35       0.00000000
  1 15 36       0.00000000
  1 15 37       0.00000000
  1 15 38       0.00000000
  1 15 39  2.50000000E-04
  1 15 40  5.48000000E-04
  1 15 41  7.74000000E-04
  1 15 42  8.28000000E-04
  1 15 43  8.81000000E-04
  1 15 44  9.34000000E-04
  1 15 45  9.88000000E-04
  1 15 46       0.00101100
  1 15 47       0.00101000
  1 15 48       0.00100900
  1 15 49       0.00100900
  1 15 50       0.00100800
  1 15 51       0.00100500
  1 15 52       0.00100100
  1 15 53  9.96000000E-04
  1 15 54  9.92000000E-04
  1 15 55  9.88000000E-04
  1 15 56  9.85000000E-04
  1 15 57  9.82000000E-04
  2 15 58  9.79000000E-04
  3 15 59  9.76000000E-04
  3 15 60  9.24000000E-04
  3 15 61  7.85000000E-04
  3 15 62  6.46000000E-04
  3 15 63  5.07000000E-04
  1 15 64  3.68000000E-04
  1 15 65  3.86000000E-04
  1 15 66  4.94000000E-04
  1 15 67  6.02000000E-04
  1 15 68  7.11000000E-04
  1 15 69  8.19000000E-04
  1 15 70  7.79000000E-04
  2 15 71  7.24000000E-04
  1 15 72  6.68000000E-04
  1 15 73  6.13000000E-04
  1 15 74  5.76000000E-04
  1 15 75  6.28000000E-04
  1 15 76  6.80000000E-04
  1 15 77  7.32000000E-04
  1 15 78  7.84000000E-04
  2 15 79  7.89000000E-04
  2 15 80  7.36000000E-04
  1 15 81  6.83000000E-04
  1 15 82  6.30000000E-04
  1 15 83  5.77000000E-04
  1 15 84  5.91000000E-04
  1 15 85  6.32000000E-04
  1 15 86  6.72000000E-04
  1 15 87  7.13000000E-04
  1 15 88  7.54000000E-04
  1 15 89  7.21000000E-04
  1 15 90  6.87000000E-04
  2 15 91  6.52000000E-04
  2 15 92  6.18000000E-04
  2 15 93  5.98000000E-04
  2 15 94  6.24000000E-04
  2 15 95  6.50000000E-04
  1 15 96  6.76000000E-04
  1 15 97  7.03000000E-04
  1 16 14  7.26000000E-04
  1 16 15  7.41000000E-04
  1 16 16  7.56000000E-04
  2 16 17  7.70000000E-04
  1 16 18  7.66000000E-04
  1 16 19  7.60000000E-04
  1 16 20  7.55000000E-04
  1 16 21  7.49000000E-04
  1 16 22  7.42000000E-04
  1 16 23  7.30000000E-04
  1 16 24  7.17000000E-04
  1 16 25  7.05000000E-04
  1 16 26  6.92000000E-04
  1 16 27  4.75000000E-04
  1 16 28  3.60000000E-05
  1 16 29       0.00000000
  1 16 30       0.00000000
  1 16 31       0.00000000
  1 16 32       0.00000000
  1 16 33       0.00000000
  1 16 34       0.00000000
  1 16 35       0.00000000
  1 16 36       0.00000000
  1 16 37  1.69000000E-04
  1 16 38  3.56000000E-04
  1 16 39  5.43000000E-04
  1 16 40  7.30000000E-04
  1 16 41  8.72000000E-04
  1 16 42  9.05000000E-04
  1 16 43  9.38000000E-04
  1 16 44  9.71000000E-04
  1 16 45       0.00100300
  1 16 46       0.00101600
  1 16 47       0.00101100
  1 16 48       0.00100700
  1 16 49       0.00100300
  1 16 50  9.99000000E-04
  1 16 51  9.96000000E-04
  1 16 52  9.94000000E-04
  1 16 53  9.92000000E-04
  1 16 54  9.90000000E-04
  1 16 55  9.88000000E-04
  1 16 56  9.85000000E-04
  1 16 57  9.83000000E-04
  1 16 58  9.81000000E-04
  2 16 59  9.79000000E-04
  2 16 60  9.42000000E-04
  3 16 61  8.45000000E-04
  3 16 62  7.49000000E-04
  3 16 63  6.52000000E-04
  3 16 64  5.55000000E-04
  2 16 65  5.71000000E-04
  1 16 66  6.52000000E-04
  1 16 67  7.33000000E-04
  1 16 68  8.14000000E-04
  1 16 69  8.95000000E-04
  1 16 70  8.56000000E-04
  2 16 71  8.04000000E-04
  2 16 72  7.53000000E-04
  2 16 73  7.01000000E-04
  1 16 74  6.64000000E-04
  1 16 75  6.93000000E-04
  1 16 76  7.23000000E-04
  1 16 77  7.52000000E-04
  1 16 78  7.82000000E-04
  1 16 79  7.85000000E-04
  2 16 80  7.55000000E-04
  2 16 81  7.26000000E-04
  1 16 82  6.96000000E-04
  1 16 83  6.66000000E-04
  1 16 84  6.74000000E-04
  1 16 85  6.98000000E-04
  1 16 86  7.21000000E-04
  1 16 87  7.45000000E-04
  1 16 88  7.68000000E-04
  1 16 89  7.28000000E-04
  1 16 90  6.86000000E-04
  2 16 91  6.43000000E-04
  1 16 92  6.01000000E-04
  2 16 93  5.77000000E-04
  2 16 94  6.07000000E-04
  1 16 95  6.37000000E-04
  1 16 96  6.67000000E-04
  1 16 97  6.97000000E-04
  2 16 98  7.01000000E-04
  1 17 14  6.71000000E-04
  1 17 15  6.67000000E-04
  1 17 16  6.64000000E-04
  1 17 17  6.60000000E-04
  1 17 18  6.55000000E-04
  1 17 19  6.50000000E-04
  1 17 20  6.45000000E-04
  1 17 21  6.41000000E-04
  1 17 22  6.36000000E-04
  1 17 23  6.31000000E-04
  1 17 24  6.25000000E-04
  1 17 25  6.20000000E-04
  1 17 26  6.15000000E-04
  1 17 27  3.46000000E-04
  1 17 28       0.00000000
  1 17 29       0.00000000
  1 17 30       0.00000000
  1 17 31       0.00000000
  1 17 32       0.00000000
  1 17 33       0.00000000
  1 17 34       0.00000000
  1 17 35  6.10000000E-05
  1 17 36  6.04000000E-04
  1 17 37  6.81000000E-04
  1 17 38  7.58000000E-04
  1 17 39  8.35000000E-04
  1 17 40  9.12000000E-04
  1 17 41  9.70000000E-04
  1 17 42  9.82000000E-04
  1 17 43  9.95000000E-04
  1 17 44       0.00100700
  1 17 45       0.00101900
  1 17 46       0.00102000
  1 17 47       0.00101300
  1 17 48       0.00100500
  1 17 49  9.97000000E-04
  1 17 50  9.89000000E-04
  1 17 51  9.88000000E-04
  1 17 52  9.88000000E-04
  1 17 53  9.87000000E-04
  1 17 54  9.87000000E-04
  1 17 55  9.87000000E-04
  1 17 56  9.85000000E-04
  1 17 57  9.84000000E-04
  1 17 58  9.83000000E-04
  1 17 59  9.81000000E-04
  1 17 60  9.60000000E-04
  3 17 61  9.06000000E-04
  3 17 62  8.51000000E-04
  2 17 63  7.97000000E-04
  1 17 64  7.43000000E-04
  1 17 65  7.57000000E-04
  1 17 66  8.10000000E-04
  1 17 67  8.64000000E-04
  1 17 68  9.17000000E-04
  1 17 69  9.71000000E-04
  1 17 70  9.33000000E-04
  1 17 71  8.85000000E-04
  1 17 72  8.37000000E-04
  2 17 73  7.90000000E-04
  2 17 74  7.52000000E-04
  2 17 75  7.59000000E-04
  2 17 76  7.66000000E-04
  2 17 77  7.73000000E-04
  2 17 78  7.80000000E-04
  2 17 79  7.81000000E-04
  2 17 80  7.75000000E-04
  2 17 81  7.68000000E-04
  2 17 82  7.62000000E-04
  1 17 83  7.55000000E-04
  1 17 84  7.58000000E-04
  1 17 85  7.64000000E-04
  1 17 86  7.70000000E-04
  1 17 87  7.76000000E-04
  1 17 88  7.83000000E-04
  1 17 89  7.34000000E-04
  2 17 90  6.84000000E-04
  2 17 91  6.35000000E-04
  1 17 92  5.85000000E-04
  2 17 93  5.57000000E-04
  1 17 94  5.90000000E-04
  1 17 95  6.24000000E-04
  2 17 96  6.57000000E-04
  1 17 97  6.91000000E-04
  1 17 98  7.01000000E-04
  1 17 99  6.90000000E-04
  1 18 15  6.96000000E-04
  1 18 16  6.89000000E-04
  1 18 17  6.82000000E-04
  1 18 18  6.78000000E-04
  2 18 19  6.74000000E-04
  1 18 20  6.71000000E-04
  1 18 21  6.67000000E-04
  1 18 22  6.62000000E-04
  1 18 23  6.58000000E-04
  1 18 24  6.53000000E-04
  1 18 25  6.48000000E-04
  1 18 26  6.43000000E-04
  1 18 27  4.10000000E-04
  1 18 28       0.00000000
  1 18 29       0.00000000
  1 18 30       0.00000000
  1 18 31       0.00000000
  1 18 32       0.00000000
  1 18 33       0.00000000
  1 18 34       0.00000000
  1 18 35  2.79000000E-04
  1 18 36  7.77000000E-04
  1 18 37  8.22000000E-04
  1 18 38  8.66000000E-04
  1 18 39  9.10000000E-04
  1 18 40  9.55000000E-04
  1 18 41  9.90000000E-04
  1 18 42       0.00100300
  1 18 43       0.00101500
  1 18 44       0.00102800
  1 18 45       0.00104000
  1 18 46       0.00103400
  1 18 47       0.00101300
  1 18 48  9.92000000E-04
  1 18 49  9.71000000E-04
  1 18 50  9.50000000E-04
  1 18 51  9.48000000E-04
  1 18 52  9.51000000E-04
  1 18 53  9.54000000E-04
  1 18 54  9.57000000E-04
  1 18 55  9.58000000E-04
  1 18 56  9.47000000E-04
  1 18 57  9.36000000E-04
  1 18 58  9.26000000E-04
  1 18 59  9.15000000E-04
  3 18 60  8.99000000E-04
  3 18 61  8.75000000E-04
  3 18 62  8.50000000E-04
  1 18 63  8.26000000E-04
  1 18 64  8.01000000E-04
  1 18 65  8.21000000E-04
  1 18 66  8.66000000E-04
  1 18 67  9.10000000E-04
  1 18 68  9.55000000E-04
  1 18 69       0.00100000
  1 18 70  9.57000000E-04
  1 18 71  9.04000000E-04
  1 18 72  8.51000000E-04
  2 18 73  7.98000000E-04
  2 18 74  7.56000000E-04
  2 18 75  7.62000000E-04
  2 18 76  7.69000000E-04
  2 18 77  7.75000000E-04
  2 18 78  7.82000000E-04
  2 18 79  7.85000000E-04
  2 18 80  7.83000000E-04
  2 18 81  7.80000000E-04
  1 18 82  7.78000000E-04
  1 18 83  7.76000000E-04
  1 18 84  7.77000000E-04
  1 18 85  7.78000000E-04
  1 18 86  7.80000000E-04
  1 18 87  7.82000000E-04
  1 18 88  7.83000000E-04
  1 18 89  7.39000000E-04
  2 18 90  6.94000000E-04
  2 18 91  6.49000000E-04
  1 18 92  6.04000000E-04
  2 18 93  5.76000000E-04
  1 18 94  5.99000000E-04
  1 18 95  6.22000000E-04
  1 18 96  6.46000000E-04
  1 18 97  6.69000000E-04
  1 18 98  6.77000000E-04
  3 18 99  6.70000000E-04
  1 18 100  6.63000000E-04
  1 19 15  7.51000000E-04
  1 19 16  7.46000000E-04
  1 19 17  7.41000000E-04
  1 19 18  7.37000000E-04
  1 19 19  7.34000000E-04
  2 19 20  7.31000000E-04
  1 19 21  7.28000000E-04
  1 19 22  7.24000000E-04
  1 19 23  7.18000000E-04
  1 19 24  7.12000000E-04
  1 19 25  7.05000000E-04
  1 19 26  6.99000000E-04
  1 19 27  5.27000000E-04
  1 19 28  1.76000000E-04
  1 19 29       0.00000000
  1 19 30       0.00000000
  1 19 31       0.00000000
  1 19 32       0.00000000
  1 19 33       0.00000000
  1 19 34  8.00000000E-05
  1 19 35  4.58000000E-04
  1 19 36  8.31000000E-04
  1 19 37  8.63000000E-04
  1 19 38  8.96000000E-04
  1 19 39  9.29000000E-04
  1 19 40  9.61000000E-04
  1 19 41  9.90000000E-04
  1 19 42       0.00100800
  1 19 43       0.00102600
  1 19 44       0.00104400
  1 19 45       0.00106300
  1 19 46       0.00105000
  1 19 47       0.00101300
  1 19 48  9.76000000E-04
  1 19 49  9.39000000E-04
  1 19 50  9.02000000E-04
  1 19 51  9.01000000E-04
  1 19 52  9.07000000E-04
  1 19 53  9.13000000E-04
  1 19 54  9.19000000E-04
  1 19 55  9.22000000E-04
  1 19 56  8.99000000E-04
  1 19 57  8.76000000E-04
  2 19 58  8.53000000E-04
  3 19 59  8.30000000E-04
  3 19 60  8.16000000E-04
  3 19 61  8.19000000E-04
  2 19 62  8.21000000E-04
  1 19 63  8.23000000E-04
  1 19 64  8.26000000E-04
  1 19 65  8.53000000E-04
  1 19 66  8.94000000E-04
  1 19 67  9.35000000E-04
  1 19 68  9.76000000E-04
  1 19 69       0.00101700
  1 19 70  9.66000000E-04
  1 19 71  9.06000000E-04
  1 19 72  8.46000000E-04
  2 19 73  7.86000000E-04
  2 19 74  7.38000000E-04
  2 19 75  7.50000000E-04
  2 19 76  7.61000000E-04
  2 19 77  7.73000000E-04
  2 19 78  7.85000000E-04
  2 19 79  7.90000000E-04
  2 19 80  7.87000000E-04
  1 19 81  7.84000000E-04
  1 19 82  7.82000000E-04
  1 19 83  7.79000000E-04
  1 19 84  7.78000000E-04
  2 19 85  7.79000000E-04
  1 19 86  7.80000000E-04
  1 19 87  7.80000000E-04
  1 19 88  7.81000000E-04
  1 19 89  7.44000000E-04
  2 19 90  7.06000000E-04
  2 19 91  6.69000000E-04
  2 19 92  6.31000000E-04
  2 19 93  6.05000000E-04
  1 19 94  6.15000000E-04
  1 19 95  6.24000000E-04
  1 19 96  6.34000000E-04
  1 19 97  6.43000000E-04
  1 19 98  6.46000000E-04
  2 19 99  6.42000000E-04
  2 19 100  6.38000000E-04
  1 19 101  6.34000000E-04
  1 20 15  8.06000000E-04
  1 20 16  8.02000000E-04
  1 20 17  7.99000000E-04
  2 20 18  7.96000000E-04
  2 20 19  7.94000000E-04
  2 20 20  7.92000000E-04
  2 20 21  7.90000000E-04
  1 20 22  7.86000000E-04
  1 20 23  7.78000000E-04
  1 20 24  7.70000000E-04
  1 20 25  7.62000000E-04
  1 20 26  7.54000000E-04
  2 20 27  6.43000000E-04
  2 20 28  4.20000000E-04
  1 20 29  1.97000000E-04