# File generated by Flopy version 3.3.6 on 06/20/2023 at 13:13:05.
BEGIN options
END options

BEGIN timing
  TDIS6  egebjergsim.tdis
END timing

BEGIN models
  gwf6  egebjerg.nam  egebjerg
END models

BEGIN exchanges
END exchanges

BEGIN solutiongroup  1
  ims6  egebjergsim.ims  egebjerg
END solutiongroup  1

